* NGSPICE file created from TopModule.ext - technology: sky130A

* Black-box entry subcircuit for sky130_fd_sc_hd__decap_6 abstract view
.subckt sky130_fd_sc_hd__decap_6 VGND VNB VPB VPWR
.ends

* Black-box entry subcircuit for sky130_fd_sc_hd__mux2_1 abstract view
.subckt sky130_fd_sc_hd__mux2_1 A0 A1 S VGND VNB VPB VPWR X
.ends

* Black-box entry subcircuit for sky130_fd_sc_hd__diode_2 abstract view
.subckt sky130_fd_sc_hd__diode_2 DIODE VGND VNB VPB VPWR
.ends

* Black-box entry subcircuit for sky130_fd_sc_hd__clkbuf_1 abstract view
.subckt sky130_fd_sc_hd__clkbuf_1 A VGND VNB VPB VPWR X
.ends

* Black-box entry subcircuit for sky130_fd_sc_hd__o221a_1 abstract view
.subckt sky130_fd_sc_hd__o221a_1 A1 A2 B1 B2 C1 VGND VNB VPB VPWR X
.ends

* Black-box entry subcircuit for sky130_fd_sc_hd__clkbuf_4 abstract view
.subckt sky130_fd_sc_hd__clkbuf_4 A VGND VNB VPB VPWR X
.ends

* Black-box entry subcircuit for sky130_fd_sc_hd__o211a_1 abstract view
.subckt sky130_fd_sc_hd__o211a_1 A1 A2 B1 C1 VGND VNB VPB VPWR X
.ends

* Black-box entry subcircuit for sky130_fd_sc_hd__clkbuf_8 abstract view
.subckt sky130_fd_sc_hd__clkbuf_8 A VGND VNB VPB VPWR X
.ends

* Black-box entry subcircuit for sky130_fd_sc_hd__decap_3 abstract view
.subckt sky130_fd_sc_hd__decap_3 VGND VNB VPB VPWR
.ends

* Black-box entry subcircuit for sky130_fd_sc_hd__a21bo_1 abstract view
.subckt sky130_fd_sc_hd__a21bo_1 A1 A2 B1_N VGND VNB VPB VPWR X
.ends

* Black-box entry subcircuit for sky130_fd_sc_hd__fill_1 abstract view
.subckt sky130_fd_sc_hd__fill_1 VGND VNB VPB VPWR
.ends

* Black-box entry subcircuit for sky130_fd_sc_hd__fill_2 abstract view
.subckt sky130_fd_sc_hd__fill_2 VGND VNB VPB VPWR
.ends

* Black-box entry subcircuit for sky130_fd_sc_hd__nand2_1 abstract view
.subckt sky130_fd_sc_hd__nand2_1 A B VGND VNB VPB VPWR Y
.ends

* Black-box entry subcircuit for sky130_fd_sc_hd__decap_8 abstract view
.subckt sky130_fd_sc_hd__decap_8 VGND VNB VPB VPWR
.ends

* Black-box entry subcircuit for sky130_ef_sc_hd__decap_12 abstract view
.subckt sky130_ef_sc_hd__decap_12 VPWR VGND VPB VNB
.ends

* Black-box entry subcircuit for sky130_fd_sc_hd__tapvpwrvgnd_1 abstract view
.subckt sky130_fd_sc_hd__tapvpwrvgnd_1 VGND VPWR
.ends

* Black-box entry subcircuit for sky130_fd_sc_hd__decap_4 abstract view
.subckt sky130_fd_sc_hd__decap_4 VGND VNB VPB VPWR
.ends

* Black-box entry subcircuit for sky130_fd_sc_hd__buf_4 abstract view
.subckt sky130_fd_sc_hd__buf_4 A VGND VNB VPB VPWR X
.ends

* Black-box entry subcircuit for sky130_fd_sc_hd__dlygate4sd3_1 abstract view
.subckt sky130_fd_sc_hd__dlygate4sd3_1 A VGND VNB VPB VPWR X
.ends

* Black-box entry subcircuit for sky130_fd_sc_hd__dfxtp_1 abstract view
.subckt sky130_fd_sc_hd__dfxtp_1 CLK D VGND VNB VPB VPWR Q
.ends

* Black-box entry subcircuit for sky130_fd_sc_hd__dfxtp_2 abstract view
.subckt sky130_fd_sc_hd__dfxtp_2 CLK D VGND VNB VPB VPWR Q
.ends

* Black-box entry subcircuit for sky130_fd_sc_hd__a211o_1 abstract view
.subckt sky130_fd_sc_hd__a211o_1 A1 A2 B1 C1 VGND VNB VPB VPWR X
.ends

* Black-box entry subcircuit for sky130_fd_sc_hd__o31a_1 abstract view
.subckt sky130_fd_sc_hd__o31a_1 A1 A2 A3 B1 VGND VNB VPB VPWR X
.ends

* Black-box entry subcircuit for sky130_fd_sc_hd__or4_4 abstract view
.subckt sky130_fd_sc_hd__or4_4 A B C D VGND VNB VPB VPWR X
.ends

* Black-box entry subcircuit for sky130_fd_sc_hd__mux4_1 abstract view
.subckt sky130_fd_sc_hd__mux4_1 A0 A1 A2 A3 S0 S1 VGND VNB VPB VPWR X
.ends

* Black-box entry subcircuit for sky130_fd_sc_hd__a21oi_1 abstract view
.subckt sky130_fd_sc_hd__a21oi_1 A1 A2 B1 VGND VNB VPB VPWR Y
.ends

* Black-box entry subcircuit for sky130_fd_sc_hd__xnor2_1 abstract view
.subckt sky130_fd_sc_hd__xnor2_1 A B VGND VNB VPB VPWR Y
.ends

* Black-box entry subcircuit for sky130_fd_sc_hd__inv_2 abstract view
.subckt sky130_fd_sc_hd__inv_2 A VGND VNB VPB VPWR Y
.ends

* Black-box entry subcircuit for sky130_fd_sc_hd__xor2_1 abstract view
.subckt sky130_fd_sc_hd__xor2_1 A B VGND VNB VPB VPWR X
.ends

* Black-box entry subcircuit for sky130_fd_sc_hd__a21o_1 abstract view
.subckt sky130_fd_sc_hd__a21o_1 A1 A2 B1 VGND VNB VPB VPWR X
.ends

* Black-box entry subcircuit for sky130_fd_sc_hd__nand2_4 abstract view
.subckt sky130_fd_sc_hd__nand2_4 A B VGND VNB VPB VPWR Y
.ends

* Black-box entry subcircuit for sky130_fd_sc_hd__inv_6 abstract view
.subckt sky130_fd_sc_hd__inv_6 A VGND VNB VPB VPWR Y
.ends

* Black-box entry subcircuit for sky130_fd_sc_hd__and2b_1 abstract view
.subckt sky130_fd_sc_hd__and2b_1 A_N B VGND VNB VPB VPWR X
.ends

* Black-box entry subcircuit for sky130_fd_sc_hd__a211o_2 abstract view
.subckt sky130_fd_sc_hd__a211o_2 A1 A2 B1 C1 VGND VNB VPB VPWR X
.ends

* Black-box entry subcircuit for sky130_fd_sc_hd__o22a_1 abstract view
.subckt sky130_fd_sc_hd__o22a_1 A1 A2 B1 B2 VGND VNB VPB VPWR X
.ends

* Black-box entry subcircuit for sky130_fd_sc_hd__and3_4 abstract view
.subckt sky130_fd_sc_hd__and3_4 A B C VGND VNB VPB VPWR X
.ends

* Black-box entry subcircuit for sky130_fd_sc_hd__nor2_4 abstract view
.subckt sky130_fd_sc_hd__nor2_4 A B VGND VNB VPB VPWR Y
.ends

* Black-box entry subcircuit for sky130_fd_sc_hd__o32a_1 abstract view
.subckt sky130_fd_sc_hd__o32a_1 A1 A2 A3 B1 B2 VGND VNB VPB VPWR X
.ends

* Black-box entry subcircuit for sky130_fd_sc_hd__nand3b_4 abstract view
.subckt sky130_fd_sc_hd__nand3b_4 A_N B C VGND VNB VPB VPWR Y
.ends

* Black-box entry subcircuit for sky130_fd_sc_hd__o21ai_1 abstract view
.subckt sky130_fd_sc_hd__o21ai_1 A1 A2 B1 VGND VNB VPB VPWR Y
.ends

* Black-box entry subcircuit for sky130_fd_sc_hd__dfxtp_4 abstract view
.subckt sky130_fd_sc_hd__dfxtp_4 CLK D VGND VNB VPB VPWR Q
.ends

* Black-box entry subcircuit for sky130_fd_sc_hd__or2_1 abstract view
.subckt sky130_fd_sc_hd__or2_1 A B VGND VNB VPB VPWR X
.ends

* Black-box entry subcircuit for sky130_fd_sc_hd__nor2_1 abstract view
.subckt sky130_fd_sc_hd__nor2_1 A B VGND VNB VPB VPWR Y
.ends

* Black-box entry subcircuit for sky130_fd_sc_hd__clkbuf_16 abstract view
.subckt sky130_fd_sc_hd__clkbuf_16 A VGND VNB VPB VPWR X
.ends

* Black-box entry subcircuit for sky130_fd_sc_hd__o21a_1 abstract view
.subckt sky130_fd_sc_hd__o21a_1 A1 A2 B1 VGND VNB VPB VPWR X
.ends

* Black-box entry subcircuit for sky130_fd_sc_hd__a22o_1 abstract view
.subckt sky130_fd_sc_hd__a22o_1 A1 A2 B1 B2 VGND VNB VPB VPWR X
.ends

* Black-box entry subcircuit for sky130_fd_sc_hd__o2bb2a_1 abstract view
.subckt sky130_fd_sc_hd__o2bb2a_1 A1_N A2_N B1 B2 VGND VNB VPB VPWR X
.ends

* Black-box entry subcircuit for sky130_fd_sc_hd__inv_8 abstract view
.subckt sky130_fd_sc_hd__inv_8 A VGND VNB VPB VPWR Y
.ends

* Black-box entry subcircuit for sky130_fd_sc_hd__bufinv_16 abstract view
.subckt sky130_fd_sc_hd__bufinv_16 A VGND VNB VPB VPWR Y
.ends

* Black-box entry subcircuit for sky130_fd_sc_hd__mux4_2 abstract view
.subckt sky130_fd_sc_hd__mux4_2 A0 A1 A2 A3 S0 S1 VGND VNB VPB VPWR X
.ends

* Black-box entry subcircuit for sky130_fd_sc_hd__buf_2 abstract view
.subckt sky130_fd_sc_hd__buf_2 A VGND VNB VPB VPWR X
.ends

* Black-box entry subcircuit for sky130_fd_sc_hd__a221o_1 abstract view
.subckt sky130_fd_sc_hd__a221o_1 A1 A2 B1 B2 C1 VGND VNB VPB VPWR X
.ends

* Black-box entry subcircuit for sky130_fd_sc_hd__and3b_2 abstract view
.subckt sky130_fd_sc_hd__and3b_2 A_N B C VGND VNB VPB VPWR X
.ends

* Black-box entry subcircuit for sky130_fd_sc_hd__or2b_1 abstract view
.subckt sky130_fd_sc_hd__or2b_1 A B_N VGND VNB VPB VPWR X
.ends

* Black-box entry subcircuit for sky130_fd_sc_hd__buf_1 abstract view
.subckt sky130_fd_sc_hd__buf_1 A VGND VNB VPB VPWR X
.ends

* Black-box entry subcircuit for sky130_fd_sc_hd__o21ba_1 abstract view
.subckt sky130_fd_sc_hd__o21ba_1 A1 A2 B1_N VGND VNB VPB VPWR X
.ends

* Black-box entry subcircuit for sky130_fd_sc_hd__clkinv_4 abstract view
.subckt sky130_fd_sc_hd__clkinv_4 A VGND VNB VPB VPWR Y
.ends

* Black-box entry subcircuit for sky130_fd_sc_hd__clkinvlp_4 abstract view
.subckt sky130_fd_sc_hd__clkinvlp_4 A VGND VNB VPB VPWR Y
.ends

* Black-box entry subcircuit for sky130_fd_sc_hd__dlymetal6s2s_1 abstract view
.subckt sky130_fd_sc_hd__dlymetal6s2s_1 A VGND VNB VPB VPWR X
.ends

* Black-box entry subcircuit for sky130_fd_sc_hd__clkbuf_2 abstract view
.subckt sky130_fd_sc_hd__clkbuf_2 A VGND VNB VPB VPWR X
.ends

* Black-box entry subcircuit for sky130_fd_sc_hd__and2_1 abstract view
.subckt sky130_fd_sc_hd__and2_1 A B VGND VNB VPB VPWR X
.ends

* Black-box entry subcircuit for sky130_fd_sc_hd__clkinvlp_2 abstract view
.subckt sky130_fd_sc_hd__clkinvlp_2 A VGND VNB VPB VPWR Y
.ends

* Black-box entry subcircuit for sky130_fd_sc_hd__a41o_1 abstract view
.subckt sky130_fd_sc_hd__a41o_1 A1 A2 A3 A4 B1 VGND VNB VPB VPWR X
.ends

* Black-box entry subcircuit for sky130_fd_sc_hd__o2bb2a_4 abstract view
.subckt sky130_fd_sc_hd__o2bb2a_4 A1_N A2_N B1 B2 VGND VNB VPB VPWR X
.ends

* Black-box entry subcircuit for sky130_fd_sc_hd__o21bai_1 abstract view
.subckt sky130_fd_sc_hd__o21bai_1 A1 A2 B1_N VGND VNB VPB VPWR Y
.ends

* Black-box entry subcircuit for sky130_fd_sc_hd__xor2_2 abstract view
.subckt sky130_fd_sc_hd__xor2_2 A B VGND VNB VPB VPWR X
.ends

* Black-box entry subcircuit for sky130_fd_sc_hd__xnor2_2 abstract view
.subckt sky130_fd_sc_hd__xnor2_2 A B VGND VNB VPB VPWR Y
.ends

* Black-box entry subcircuit for sky130_fd_sc_hd__clkinv_1 abstract view
.subckt sky130_fd_sc_hd__clkinv_1 A VGND VNB VPB VPWR Y
.ends

* Black-box entry subcircuit for sky130_fd_sc_hd__o41a_1 abstract view
.subckt sky130_fd_sc_hd__o41a_1 A1 A2 A3 A4 B1 VGND VNB VPB VPWR X
.ends

* Black-box entry subcircuit for sky130_fd_sc_hd__clkinv_8 abstract view
.subckt sky130_fd_sc_hd__clkinv_8 A VGND VNB VPB VPWR Y
.ends

* Black-box entry subcircuit for sky130_fd_sc_hd__a2111o_1 abstract view
.subckt sky130_fd_sc_hd__a2111o_1 A1 A2 B1 C1 D1 VGND VNB VPB VPWR X
.ends

* Black-box entry subcircuit for sky130_fd_sc_hd__or3_1 abstract view
.subckt sky130_fd_sc_hd__or3_1 A B C VGND VNB VPB VPWR X
.ends

* Black-box entry subcircuit for sky130_fd_sc_hd__and3b_1 abstract view
.subckt sky130_fd_sc_hd__and3b_1 A_N B C VGND VNB VPB VPWR X
.ends

* Black-box entry subcircuit for sky130_fd_sc_hd__nor2_2 abstract view
.subckt sky130_fd_sc_hd__nor2_2 A B VGND VNB VPB VPWR Y
.ends

* Black-box entry subcircuit for sky130_fd_sc_hd__a22oi_1 abstract view
.subckt sky130_fd_sc_hd__a22oi_1 A1 A2 B1 B2 VGND VNB VPB VPWR Y
.ends

* Black-box entry subcircuit for sky130_fd_sc_hd__a31o_1 abstract view
.subckt sky130_fd_sc_hd__a31o_1 A1 A2 A3 B1 VGND VNB VPB VPWR X
.ends

* Black-box entry subcircuit for sky130_fd_sc_hd__and3_1 abstract view
.subckt sky130_fd_sc_hd__and3_1 A B C VGND VNB VPB VPWR X
.ends

* Black-box entry subcircuit for sky130_fd_sc_hd__nand2b_4 abstract view
.subckt sky130_fd_sc_hd__nand2b_4 A_N B VGND VNB VPB VPWR Y
.ends

* Black-box entry subcircuit for sky130_fd_sc_hd__nor4_4 abstract view
.subckt sky130_fd_sc_hd__nor4_4 A B C D VGND VNB VPB VPWR Y
.ends

* Black-box entry subcircuit for sky130_fd_sc_hd__nand2_2 abstract view
.subckt sky130_fd_sc_hd__nand2_2 A B VGND VNB VPB VPWR Y
.ends

* Black-box entry subcircuit for sky130_fd_sc_hd__or3b_4 abstract view
.subckt sky130_fd_sc_hd__or3b_4 A B C_N VGND VNB VPB VPWR X
.ends

* Black-box entry subcircuit for sky130_fd_sc_hd__a21boi_2 abstract view
.subckt sky130_fd_sc_hd__a21boi_2 A1 A2 B1_N VGND VNB VPB VPWR Y
.ends

* Black-box entry subcircuit for sky130_fd_sc_hd__or2_4 abstract view
.subckt sky130_fd_sc_hd__or2_4 A B VGND VNB VPB VPWR X
.ends

* Black-box entry subcircuit for sky130_fd_sc_hd__or3_2 abstract view
.subckt sky130_fd_sc_hd__or3_2 A B C VGND VNB VPB VPWR X
.ends

* Black-box entry subcircuit for sky130_fd_sc_hd__a2bb2o_1 abstract view
.subckt sky130_fd_sc_hd__a2bb2o_1 A1_N A2_N B1 B2 VGND VNB VPB VPWR X
.ends

* Black-box entry subcircuit for sky130_fd_sc_hd__buf_6 abstract view
.subckt sky130_fd_sc_hd__buf_6 A VGND VNB VPB VPWR X
.ends

* Black-box entry subcircuit for sky130_fd_sc_hd__or4_1 abstract view
.subckt sky130_fd_sc_hd__or4_1 A B C D VGND VNB VPB VPWR X
.ends

* Black-box entry subcircuit for sky130_fd_sc_hd__o311a_1 abstract view
.subckt sky130_fd_sc_hd__o311a_1 A1 A2 A3 B1 C1 VGND VNB VPB VPWR X
.ends

* Black-box entry subcircuit for sky130_fd_sc_hd__and4b_1 abstract view
.subckt sky130_fd_sc_hd__and4b_1 A_N B C D VGND VNB VPB VPWR X
.ends

* Black-box entry subcircuit for sky130_fd_sc_hd__nor3_1 abstract view
.subckt sky130_fd_sc_hd__nor3_1 A B C VGND VNB VPB VPWR Y
.ends

* Black-box entry subcircuit for sky130_fd_sc_hd__or3b_1 abstract view
.subckt sky130_fd_sc_hd__or3b_1 A B C_N VGND VNB VPB VPWR X
.ends

* Black-box entry subcircuit for sky130_fd_sc_hd__inv_12 abstract view
.subckt sky130_fd_sc_hd__inv_12 A VGND VNB VPB VPWR Y
.ends

* Black-box entry subcircuit for sky130_fd_sc_hd__a32o_1 abstract view
.subckt sky130_fd_sc_hd__a32o_1 A1 A2 A3 B1 B2 VGND VNB VPB VPWR X
.ends

* Black-box entry subcircuit for sky130_fd_sc_hd__or2_2 abstract view
.subckt sky130_fd_sc_hd__or2_2 A B VGND VNB VPB VPWR X
.ends

* Black-box entry subcircuit for sky130_fd_sc_hd__o311a_4 abstract view
.subckt sky130_fd_sc_hd__o311a_4 A1 A2 A3 B1 C1 VGND VNB VPB VPWR X
.ends

* Black-box entry subcircuit for sky130_fd_sc_hd__nor2b_2 abstract view
.subckt sky130_fd_sc_hd__nor2b_2 A B_N VGND VNB VPB VPWR Y
.ends

* Black-box entry subcircuit for sky130_fd_sc_hd__nand3_2 abstract view
.subckt sky130_fd_sc_hd__nand3_2 A B C VGND VNB VPB VPWR Y
.ends

* Black-box entry subcircuit for sky130_fd_sc_hd__nor2b_4 abstract view
.subckt sky130_fd_sc_hd__nor2b_4 A B_N VGND VNB VPB VPWR Y
.ends

* Black-box entry subcircuit for sky130_fd_sc_hd__and3b_4 abstract view
.subckt sky130_fd_sc_hd__and3b_4 A_N B C VGND VNB VPB VPWR X
.ends

* Black-box entry subcircuit for sky130_fd_sc_hd__a31oi_1 abstract view
.subckt sky130_fd_sc_hd__a31oi_1 A1 A2 A3 B1 VGND VNB VPB VPWR Y
.ends

* Black-box entry subcircuit for sky130_fd_sc_hd__o21ai_2 abstract view
.subckt sky130_fd_sc_hd__o21ai_2 A1 A2 B1 VGND VNB VPB VPWR Y
.ends

* Black-box entry subcircuit for sky130_fd_sc_hd__o211ai_1 abstract view
.subckt sky130_fd_sc_hd__o211ai_1 A1 A2 B1 C1 VGND VNB VPB VPWR Y
.ends

* Black-box entry subcircuit for sky130_fd_sc_hd__or3b_2 abstract view
.subckt sky130_fd_sc_hd__or3b_2 A B C_N VGND VNB VPB VPWR X
.ends

* Black-box entry subcircuit for sky130_fd_sc_hd__or3_4 abstract view
.subckt sky130_fd_sc_hd__or3_4 A B C VGND VNB VPB VPWR X
.ends

* Black-box entry subcircuit for sky130_fd_sc_hd__nand3_1 abstract view
.subckt sky130_fd_sc_hd__nand3_1 A B C VGND VNB VPB VPWR Y
.ends

* Black-box entry subcircuit for sky130_fd_sc_hd__o31ai_1 abstract view
.subckt sky130_fd_sc_hd__o31ai_1 A1 A2 A3 B1 VGND VNB VPB VPWR Y
.ends

* Black-box entry subcircuit for sky130_fd_sc_hd__and4bb_1 abstract view
.subckt sky130_fd_sc_hd__and4bb_1 A_N B_N C D VGND VNB VPB VPWR X
.ends

* Black-box entry subcircuit for sky130_fd_sc_hd__nand3_4 abstract view
.subckt sky130_fd_sc_hd__nand3_4 A B C VGND VNB VPB VPWR Y
.ends

* Black-box entry subcircuit for sky130_fd_sc_hd__dlygate4sd1_1 abstract view
.subckt sky130_fd_sc_hd__dlygate4sd1_1 A VGND VNB VPB VPWR X
.ends

* Black-box entry subcircuit for sky130_fd_sc_hd__a21boi_1 abstract view
.subckt sky130_fd_sc_hd__a21boi_1 A1 A2 B1_N VGND VNB VPB VPWR Y
.ends

* Black-box entry subcircuit for sky130_fd_sc_hd__mux2_2 abstract view
.subckt sky130_fd_sc_hd__mux2_2 A0 A1 S VGND VNB VPB VPWR X
.ends

* Black-box entry subcircuit for sky130_fd_sc_hd__o22ai_1 abstract view
.subckt sky130_fd_sc_hd__o22ai_1 A1 A2 B1 B2 VGND VNB VPB VPWR Y
.ends

* Black-box entry subcircuit for sky130_fd_sc_hd__nand2b_1 abstract view
.subckt sky130_fd_sc_hd__nand2b_1 A_N B VGND VNB VPB VPWR Y
.ends

.subckt TopModule A1[0] A1[1] A1[2] A1[3] A1[4] A2[0] A2[1] A2[2] A2[3] A2[4] A3[0]
+ A3[1] A3[2] A3[3] A3[4] RD1[0] RD1[10] RD1[11] RD1[12] RD1[13] RD1[14] RD1[15] RD1[16]
+ RD1[17] RD1[18] RD1[19] RD1[1] RD1[20] RD1[21] RD1[22] RD1[23] RD1[24] RD1[25] RD1[26]
+ RD1[27] RD1[28] RD1[29] RD1[2] RD1[30] RD1[31] RD1[3] RD1[4] RD1[5] RD1[6] RD1[7]
+ RD1[8] RD1[9] RD2[0] RD2[10] RD2[11] RD2[12] RD2[13] RD2[14] RD2[15] RD2[16] RD2[17]
+ RD2[18] RD2[19] RD2[1] RD2[20] RD2[21] RD2[22] RD2[23] RD2[24] RD2[25] RD2[26] RD2[27]
+ RD2[28] RD2[29] RD2[2] RD2[30] RD2[31] RD2[3] RD2[4] RD2[5] RD2[6] RD2[7] RD2[8]
+ RD2[9] VGND VPWR WD3[0] WD3[10] WD3[11] WD3[12] WD3[13] WD3[14] WD3[15] WD3[16]
+ WD3[17] WD3[18] WD3[19] WD3[1] WD3[20] WD3[21] WD3[22] WD3[23] WD3[24] WD3[25] WD3[26]
+ WD3[27] WD3[28] WD3[29] WD3[2] WD3[30] WD3[31] WD3[3] WD3[4] WD3[5] WD3[6] WD3[7]
+ WD3[8] WD3[9] WE3 clk inputA[0] inputA[10] inputA[11] inputA[12] inputA[13] inputA[14]
+ inputA[15] inputA[16] inputA[17] inputA[18] inputA[19] inputA[1] inputA[20] inputA[21]
+ inputA[22] inputA[23] inputA[24] inputA[25] inputA[26] inputA[27] inputA[28] inputA[29]
+ inputA[2] inputA[30] inputA[31] inputA[3] inputA[4] inputA[5] inputA[6] inputA[7]
+ inputA[8] inputA[9] inputB[0] inputB[10] inputB[11] inputB[12] inputB[13] inputB[14]
+ inputB[15] inputB[16] inputB[17] inputB[18] inputB[19] inputB[1] inputB[20] inputB[21]
+ inputB[22] inputB[23] inputB[24] inputB[25] inputB[26] inputB[27] inputB[28] inputB[29]
+ inputB[2] inputB[30] inputB[31] inputB[3] inputB[4] inputB[5] inputB[6] inputB[7]
+ inputB[8] inputB[9] opcode[0] opcode[1] outputC[0] outputC[10] outputC[11] outputC[12]
+ outputC[13] outputC[14] outputC[15] outputC[16] outputC[17] outputC[18] outputC[19]
+ outputC[1] outputC[20] outputC[21] outputC[22] outputC[23] outputC[24] outputC[25]
+ outputC[26] outputC[27] outputC[28] outputC[29] outputC[2] outputC[30] outputC[31]
+ outputC[3] outputC[4] outputC[5] outputC[6] outputC[7] outputC[8] outputC[9]
XFILLER_0_94_77 VGND VGND VPWR VPWR sky130_fd_sc_hd__decap_6
X_05903_ net326 _01784_ _01846_ VGND VGND VPWR VPWR _01860_ sky130_fd_sc_hd__mux2_1
XANTENNA__09523__A2 _03792_ VGND VGND VPWR VPWR sky130_fd_sc_hd__diode_2
X_06883_ _02410_ VGND VGND VPWR VPWR _00063_ sky130_fd_sc_hd__clkbuf_1
XANTENNA__08957__S1 _03851_ VGND VGND VPWR VPWR sky130_fd_sc_hd__diode_2
X_09671_ net342 _02277_ _04816_ VGND VGND VPWR VPWR _04821_ sky130_fd_sc_hd__mux2_1
X_08622_ _03761_ _03845_ _03847_ _03848_ _03774_ VGND VGND VPWR VPWR _03849_ sky130_fd_sc_hd__o221a_1
X_05834_ net23 VGND VGND VPWR VPWR _01812_ sky130_fd_sc_hd__clkbuf_4
XANTENNA__08709__A _03773_ VGND VGND VPWR VPWR sky130_fd_sc_hd__diode_2
XANTENNA__05832__S _01810_ VGND VGND VPWR VPWR sky130_fd_sc_hd__diode_2
X_05765_ _01203_ _01723_ _01756_ _01219_ VGND VGND VPWR VPWR _01757_ sky130_fd_sc_hd__o211a_1
X_08553_ A1[0] VGND VGND VPWR VPWR _03781_ sky130_fd_sc_hd__clkbuf_8
XANTENNA__09287__A1 _04133_ VGND VGND VPWR VPWR sky130_fd_sc_hd__diode_2
XPHY_EDGE_ROW_59_Left_222 VGND VGND VPWR VPWR sky130_fd_sc_hd__decap_3
XFILLER_0_76_133 VGND VGND VPWR VPWR sky130_fd_sc_hd__decap_6
X_07504_ _02737_ VGND VGND VPWR VPWR _02764_ sky130_fd_sc_hd__clkbuf_4
X_08484_ _03407_ regfile_inst.RegisterFile\[27\]\[30\] _03377_ VGND VGND VPWR VPWR
+ _03714_ sky130_fd_sc_hd__a21bo_1
XFILLER_0_134_83 VGND VGND VPWR VPWR sky130_fd_sc_hd__fill_1
XFILLER_0_49_369 VGND VGND VPWR VPWR sky130_fd_sc_hd__fill_2
X_05696_ net64 _01690_ VGND VGND VPWR VPWR _01692_ sky130_fd_sc_hd__nand2_1
XFILLER_0_147_533 VGND VGND VPWR VPWR sky130_fd_sc_hd__decap_8
XFILLER_0_18_701 VPWR VGND VPWR VGND sky130_ef_sc_hd__decap_12
X_07435_ _02706_ VGND VGND VPWR VPWR _00319_ sky130_fd_sc_hd__clkbuf_1
XFILLER_0_58_881 VGND VGND VPWR VPWR sky130_fd_sc_hd__fill_2
XFILLER_0_76_188 VGND VGND VPWR VPWR sky130_fd_sc_hd__fill_2
XANTENNA__09039__A1 _04184_ VGND VGND VPWR VPWR sky130_fd_sc_hd__diode_2
XFILLER_0_91_125 VPWR VGND VPWR VGND sky130_ef_sc_hd__decap_12
XFILLER_0_57_391 VGND VGND VPWR VPWR sky130_fd_sc_hd__fill_1
XFILLER_0_162_514 VPWR VGND VPWR VGND sky130_ef_sc_hd__decap_12
XFILLER_0_45_542 VGND VGND VPWR VPWR sky130_fd_sc_hd__fill_1
XFILLER_0_119_279 VGND VGND VPWR VPWR sky130_fd_sc_hd__fill_1
X_07366_ _01932_ net1173 _02669_ VGND VGND VPWR VPWR _02670_ sky130_fd_sc_hd__mux2_1
XANTENNA__06663__S _02269_ VGND VGND VPWR VPWR sky130_fd_sc_hd__diode_2
XANTENNA__08444__A _02720_ VGND VGND VPWR VPWR sky130_fd_sc_hd__diode_2
XTAP_TAPCELL_ROW_44_1092 VGND VPWR sky130_fd_sc_hd__tapvpwrvgnd_1
XFILLER_0_73_873 VGND VGND VPWR VPWR sky130_fd_sc_hd__fill_2
XFILLER_0_91_169 VGND VGND VPWR VPWR sky130_fd_sc_hd__decap_4
X_06317_ _01941_ net735 _02092_ VGND VGND VPWR VPWR _02097_ sky130_fd_sc_hd__mux2_1
X_09105_ regfile_inst.RegisterFile\[27\]\[15\] _03983_ _04193_ VGND VGND VPWR VPWR
+ _04318_ sky130_fd_sc_hd__a21bo_1
XFILLER_0_116_964 VGND VGND VPWR VPWR sky130_fd_sc_hd__fill_2
XTAP_TAPCELL_ROW_150_2905 VGND VPWR sky130_fd_sc_hd__tapvpwrvgnd_1
X_07297_ _02610_ VGND VGND VPWR VPWR _02633_ sky130_fd_sc_hd__buf_4
XFILLER_0_32_236 VPWR VGND VPWR VGND sky130_ef_sc_hd__decap_12
XANTENNA__09974__S _04971_ VGND VGND VPWR VPWR sky130_fd_sc_hd__diode_2
XANTENNA__08903__B1_N _03865_ VGND VGND VPWR VPWR sky130_fd_sc_hd__diode_2
X_09036_ regfile_inst.RegisterFile\[16\]\[13\] regfile_inst.RegisterFile\[17\]\[13\]
+ _04033_ VGND VGND VPWR VPWR _04251_ sky130_fd_sc_hd__mux2_1
XFILLER_0_103_614 VGND VGND VPWR VPWR sky130_fd_sc_hd__fill_2
X_06248_ net615 _01824_ _02055_ VGND VGND VPWR VPWR _02060_ sky130_fd_sc_hd__mux2_1
XPHY_EDGE_ROW_68_Left_231 VGND VGND VPWR VPWR sky130_fd_sc_hd__decap_3
XFILLER_0_60_589 VGND VGND VPWR VPWR sky130_fd_sc_hd__fill_2
XFILLER_0_13_461 VPWR VGND VPWR VGND sky130_ef_sc_hd__decap_12
Xhold340 regfile_inst.RegisterFile\[10\]\[5\] VGND VGND VPWR VPWR net549 sky130_fd_sc_hd__dlygate4sd3_1
X_06179_ net652 _01824_ _02018_ VGND VGND VPWR VPWR _02023_ sky130_fd_sc_hd__mux2_1
XANTENNA__09211__A1 _04240_ VGND VGND VPWR VPWR sky130_fd_sc_hd__diode_2
Xhold351 regfile_inst.RegisterFile\[6\]\[27\] VGND VGND VPWR VPWR net560 sky130_fd_sc_hd__dlygate4sd3_1
Xhold362 regfile_inst.RegisterFile\[8\]\[24\] VGND VGND VPWR VPWR net571 sky130_fd_sc_hd__dlygate4sd3_1
XFILLER_0_130_477 VGND VGND VPWR VPWR sky130_fd_sc_hd__fill_1
XFILLER_0_7_81 VPWR VGND VPWR VGND sky130_ef_sc_hd__decap_12
Xhold373 regfile_inst.RegisterFile\[16\]\[29\] VGND VGND VPWR VPWR net582 sky130_fd_sc_hd__dlygate4sd3_1
Xhold384 regfile_inst.RegisterFile\[17\]\[17\] VGND VGND VPWR VPWR net593 sky130_fd_sc_hd__dlygate4sd3_1
Xhold395 net147 VGND VGND VPWR VPWR net604 sky130_fd_sc_hd__dlygate4sd3_1
XANTENNA__07773__A1 _02745_ VGND VGND VPWR VPWR sky130_fd_sc_hd__diode_2
X_09938_ _04962_ VGND VGND VPWR VPWR _00566_ sky130_fd_sc_hd__clkbuf_1
XTAP_TAPCELL_ROW_148_2867 VGND VPWR sky130_fd_sc_hd__tapvpwrvgnd_1
X_09869_ net343 _02271_ _04924_ VGND VGND VPWR VPWR _04926_ sky130_fd_sc_hd__mux2_1
XPHY_EDGE_ROW_77_Left_240 VGND VGND VPWR VPWR sky130_fd_sc_hd__decap_3
XANTENNA__08619__A _03767_ VGND VGND VPWR VPWR sky130_fd_sc_hd__diode_2
XANTENNA__07523__A _02782_ VGND VGND VPWR VPWR sky130_fd_sc_hd__diode_2
XANTENNA__09278__A1 _03825_ VGND VGND VPWR VPWR sky130_fd_sc_hd__diode_2
XTAP_TAPCELL_ROW_16_618 VGND VPWR sky130_fd_sc_hd__tapvpwrvgnd_1
XFILLER_0_67_122 VGND VGND VPWR VPWR sky130_fd_sc_hd__fill_2
XFILLER_0_68_645 VGND VGND VPWR VPWR sky130_fd_sc_hd__fill_1
XTAP_TAPCELL_ROW_16_629 VGND VPWR sky130_fd_sc_hd__tapvpwrvgnd_1
XFILLER_0_96_965 VGND VGND VPWR VPWR sky130_fd_sc_hd__fill_1
XTAP_TAPCELL_ROW_64_1435 VGND VPWR sky130_fd_sc_hd__tapvpwrvgnd_1
XTAP_TAPCELL_ROW_64_1446 VGND VPWR sky130_fd_sc_hd__tapvpwrvgnd_1
XFILLER_0_138_533 VGND VGND VPWR VPWR sky130_fd_sc_hd__fill_2
X_10713_ clknet_leaf_66_clk _00085_ VGND VGND VPWR VPWR regfile_inst.RegisterFile\[23\]\[10\]
+ sky130_fd_sc_hd__dfxtp_1
XFILLER_0_67_188 VGND VGND VPWR VPWR sky130_fd_sc_hd__fill_2
XFILLER_0_36_531 VGND VGND VPWR VPWR sky130_fd_sc_hd__fill_1
X_10644_ clknet_leaf_89_clk _00016_ VGND VGND VPWR VPWR regfile_inst.RegisterFile\[22\]\[5\]
+ sky130_fd_sc_hd__dfxtp_1
XANTENNA__06573__S _02228_ VGND VGND VPWR VPWR sky130_fd_sc_hd__diode_2
XFILLER_0_130_19 VGND VGND VPWR VPWR sky130_fd_sc_hd__decap_8
XFILLER_0_70_309 VGND VGND VPWR VPWR sky130_fd_sc_hd__fill_1
XFILLER_0_82_169 VGND VGND VPWR VPWR sky130_fd_sc_hd__fill_2
XFILLER_0_153_547 VGND VGND VPWR VPWR sky130_fd_sc_hd__fill_2
XFILLER_0_107_953 VGND VGND VPWR VPWR sky130_fd_sc_hd__fill_2
XFILLER_0_153_569 VGND VGND VPWR VPWR sky130_fd_sc_hd__decap_4
XFILLER_0_64_895 VGND VGND VPWR VPWR sky130_fd_sc_hd__fill_2
XFILLER_0_24_737 VPWR VGND VPWR VGND sky130_ef_sc_hd__decap_12
X_10575_ clknet_leaf_107_clk _01088_ VGND VGND VPWR VPWR net177 sky130_fd_sc_hd__dfxtp_2
XFILLER_0_3_609 VGND VGND VPWR VPWR sky130_fd_sc_hd__decap_6
XFILLER_0_106_441 VGND VGND VPWR VPWR sky130_fd_sc_hd__fill_2
XFILLER_0_23_225 VPWR VGND VPWR VGND sky130_ef_sc_hd__decap_12
XFILLER_0_122_934 VGND VGND VPWR VPWR sky130_fd_sc_hd__fill_2
XANTENNA_output179_A net179 VGND VGND VPWR VPWR sky130_fd_sc_hd__diode_2
XFILLER_0_121_444 VGND VGND VPWR VPWR sky130_fd_sc_hd__fill_2
XFILLER_0_32_781 VPWR VGND VPWR VGND sky130_ef_sc_hd__decap_12
XFILLER_0_121_477 VGND VGND VPWR VPWR sky130_fd_sc_hd__fill_2
XFILLER_0_121_488 VGND VGND VPWR VPWR sky130_fd_sc_hd__decap_4
XANTENNA__07764__A1 _02807_ VGND VGND VPWR VPWR sky130_fd_sc_hd__diode_2
X_11127_ clknet_leaf_5_clk _00499_ VGND VGND VPWR VPWR regfile_inst.RegisterFile\[5\]\[8\]
+ sky130_fd_sc_hd__dfxtp_1
XANTENNA__08664__A_N _03792_ VGND VGND VPWR VPWR sky130_fd_sc_hd__diode_2
XFILLER_0_155_27 VPWR VGND VPWR VGND sky130_ef_sc_hd__decap_12
X_11058_ clknet_leaf_8_clk _00430_ VGND VGND VPWR VPWR regfile_inst.RegisterFile\[0\]\[3\]
+ sky130_fd_sc_hd__dfxtp_1
XANTENNA__09913__A _04948_ VGND VGND VPWR VPWR sky130_fd_sc_hd__diode_2
XFILLER_0_3_39 VPWR VGND VPWR VGND sky130_ef_sc_hd__decap_12
X_10009_ regfile_inst.RegisterFile\[8\]\[13\] net18 _04996_ VGND VGND VPWR VPWR _05000_
+ sky130_fd_sc_hd__mux2_1
XANTENNA__06748__S _02337_ VGND VGND VPWR VPWR sky130_fd_sc_hd__diode_2
XANTENNA__08529__A _03756_ VGND VGND VPWR VPWR sky130_fd_sc_hd__diode_2
XANTENNA__07433__A _02682_ VGND VGND VPWR VPWR sky130_fd_sc_hd__diode_2
XANTENNA__05622__S0 _01329_ VGND VGND VPWR VPWR sky130_fd_sc_hd__diode_2
XANTENNA__09269__A1 _04143_ VGND VGND VPWR VPWR sky130_fd_sc_hd__diode_2
XFILLER_0_58_111 VGND VGND VPWR VPWR sky130_fd_sc_hd__decap_8
XFILLER_0_129_500 VGND VGND VPWR VPWR sky130_fd_sc_hd__fill_2
XTAP_TAPCELL_ROW_35_938 VGND VPWR sky130_fd_sc_hd__tapvpwrvgnd_1
XFILLER_0_147_3 VPWR VGND VPWR VGND sky130_ef_sc_hd__decap_12
X_05550_ _01497_ _01551_ _01553_ _01554_ VGND VGND VPWR VPWR _01555_ sky130_fd_sc_hd__a211o_1
XTAP_TAPCELL_ROW_35_949 VGND VPWR sky130_fd_sc_hd__tapvpwrvgnd_1
XFILLER_0_157_853 VPWR VGND VPWR VGND sky130_ef_sc_hd__decap_12
XFILLER_0_156_330 VGND VGND VPWR VPWR sky130_fd_sc_hd__fill_2
XFILLER_0_58_177 VGND VGND VPWR VPWR sky130_fd_sc_hd__fill_1
XFILLER_0_58_188 VGND VGND VPWR VPWR sky130_fd_sc_hd__fill_2
X_05481_ _01137_ _01194_ net1210 _01236_ VGND VGND VPWR VPWR _01490_ sky130_fd_sc_hd__o31a_1
XFILLER_0_104_53 VPWR VGND VPWR VGND sky130_ef_sc_hd__decap_12
XFILLER_0_129_577 VGND VGND VPWR VPWR sky130_fd_sc_hd__decap_3
XFILLER_0_13_51 VGND VGND VPWR VPWR sky130_fd_sc_hd__decap_4
XFILLER_0_157_897 VPWR VGND VPWR VGND sky130_ef_sc_hd__decap_12
XFILLER_0_144_514 VGND VGND VPWR VPWR sky130_fd_sc_hd__fill_2
XFILLER_0_39_391 VGND VGND VPWR VPWR sky130_fd_sc_hd__fill_1
X_07220_ _02592_ VGND VGND VPWR VPWR _00218_ sky130_fd_sc_hd__clkbuf_1
XFILLER_0_129_599 VGND VGND VPWR VPWR sky130_fd_sc_hd__fill_2
XANTENNA__05888__A net36 VGND VGND VPWR VPWR sky130_fd_sc_hd__diode_2
XFILLER_0_27_553 VGND VGND VPWR VPWR sky130_fd_sc_hd__decap_6
XFILLER_0_73_169 VGND VGND VPWR VPWR sky130_fd_sc_hd__decap_3
XFILLER_0_104_97 VPWR VGND VPWR VGND sky130_ef_sc_hd__decap_12
XFILLER_0_55_873 VGND VGND VPWR VPWR sky130_fd_sc_hd__fill_2
XFILLER_0_144_569 VGND VGND VPWR VPWR sky130_fd_sc_hd__fill_1
XFILLER_0_132_709 VGND VGND VPWR VPWR sky130_fd_sc_hd__fill_1
X_07151_ _02555_ VGND VGND VPWR VPWR _00186_ sky130_fd_sc_hd__clkbuf_1
XFILLER_0_27_597 VPWR VGND VPWR VGND sky130_ef_sc_hd__decap_12
XFILLER_0_6_469 VGND VGND VPWR VPWR sky130_fd_sc_hd__decap_6
XANTENNA__09441__A1 _03817_ VGND VGND VPWR VPWR sky130_fd_sc_hd__diode_2
XFILLER_0_113_901 VGND VGND VPWR VPWR sky130_fd_sc_hd__fill_2
XTAP_TAPCELL_ROW_132_2602 VGND VPWR sky130_fd_sc_hd__tapvpwrvgnd_1
XANTENNA__08875__S0 _03827_ VGND VGND VPWR VPWR sky130_fd_sc_hd__diode_2
XFILLER_0_81_180 VGND VGND VPWR VPWR sky130_fd_sc_hd__fill_2
X_06102_ regfile_inst.RegisterFile\[11\]\[20\] _01816_ _01981_ VGND VGND VPWR VPWR
+ _01982_ sky130_fd_sc_hd__mux2_1
XFILLER_0_42_545 VGND VGND VPWR VPWR sky130_fd_sc_hd__fill_1
XFILLER_0_125_783 VGND VGND VPWR VPWR sky130_fd_sc_hd__fill_1
XANTENNA__09794__S _04877_ VGND VGND VPWR VPWR sky130_fd_sc_hd__diode_2
XFILLER_0_120_41 VPWR VGND VPWR VGND sky130_ef_sc_hd__decap_12
X_07082_ net786 _02279_ _02513_ VGND VGND VPWR VPWR _02519_ sky130_fd_sc_hd__mux2_1
XFILLER_0_113_945 VGND VGND VPWR VPWR sky130_fd_sc_hd__decap_4
XFILLER_0_42_589 VGND VGND VPWR VPWR sky130_fd_sc_hd__decap_3
XFILLER_0_70_898 VGND VGND VPWR VPWR sky130_fd_sc_hd__fill_2
X_06033_ net30 VGND VGND VPWR VPWR _01941_ sky130_fd_sc_hd__clkbuf_4
XFILLER_0_11_921 VPWR VGND VPWR VGND sky130_ef_sc_hd__decap_12
XFILLER_0_120_85 VPWR VGND VPWR VGND sky130_ef_sc_hd__decap_12
XFILLER_0_112_477 VGND VGND VPWR VPWR sky130_fd_sc_hd__fill_1
XFILLER_0_10_475 VGND VGND VPWR VPWR sky130_fd_sc_hd__fill_1
X_07984_ _02786_ _03227_ _03228_ _03229_ _02893_ VGND VGND VPWR VPWR _03230_ sky130_fd_sc_hd__o221a_1
XANTENNA__07850__S1 _02805_ VGND VGND VPWR VPWR sky130_fd_sc_hd__diode_2
XFILLER_0_38_81 VGND VGND VPWR VPWR sky130_fd_sc_hd__decap_3
X_09723_ _04848_ VGND VGND VPWR VPWR _00465_ sky130_fd_sc_hd__clkbuf_1
XANTENNA__08274__B1_N _02813_ VGND VGND VPWR VPWR sky130_fd_sc_hd__diode_2
X_06935_ _01918_ net1119 _02434_ VGND VGND VPWR VPWR _02438_ sky130_fd_sc_hd__mux2_1
X_09654_ net657 _02472_ _04805_ VGND VGND VPWR VPWR _04812_ sky130_fd_sc_hd__mux2_1
XANTENNA__07602__S1 _02828_ VGND VGND VPWR VPWR sky130_fd_sc_hd__diode_2
X_06866_ _02401_ VGND VGND VPWR VPWR _00055_ sky130_fd_sc_hd__clkbuf_1