* NGSPICE file created from alu.ext - technology: sky130A

* Black-box entry subcircuit for sky130_ef_sc_hd__decap_12 abstract view
.subckt sky130_ef_sc_hd__decap_12 VPWR VGND VPB VNB
.ends

* Black-box entry subcircuit for sky130_fd_sc_hd__nand3_1 abstract view
.subckt sky130_fd_sc_hd__nand3_1 A B C VGND VNB VPB VPWR Y
.ends

* Black-box entry subcircuit for sky130_fd_sc_hd__decap_4 abstract view
.subckt sky130_fd_sc_hd__decap_4 VGND VNB VPB VPWR
.ends

* Black-box entry subcircuit for sky130_fd_sc_hd__xor2_1 abstract view
.subckt sky130_fd_sc_hd__xor2_1 A B VGND VNB VPB VPWR X
.ends

* Black-box entry subcircuit for sky130_fd_sc_hd__nand2_1 abstract view
.subckt sky130_fd_sc_hd__nand2_1 A B VGND VNB VPB VPWR Y
.ends

* Black-box entry subcircuit for sky130_fd_sc_hd__and2_1 abstract view
.subckt sky130_fd_sc_hd__and2_1 A B VGND VNB VPB VPWR X
.ends

* Black-box entry subcircuit for sky130_fd_sc_hd__decap_3 abstract view
.subckt sky130_fd_sc_hd__decap_3 VGND VNB VPB VPWR
.ends

* Black-box entry subcircuit for sky130_fd_sc_hd__tapvpwrvgnd_1 abstract view
.subckt sky130_fd_sc_hd__tapvpwrvgnd_1 VGND VPWR
.ends

* Black-box entry subcircuit for sky130_fd_sc_hd__fill_1 abstract view
.subckt sky130_fd_sc_hd__fill_1 VGND VNB VPB VPWR
.ends

* Black-box entry subcircuit for sky130_fd_sc_hd__nor2_1 abstract view
.subckt sky130_fd_sc_hd__nor2_1 A B VGND VNB VPB VPWR Y
.ends

* Black-box entry subcircuit for sky130_fd_sc_hd__decap_8 abstract view
.subckt sky130_fd_sc_hd__decap_8 VGND VNB VPB VPWR
.ends

* Black-box entry subcircuit for sky130_fd_sc_hd__and3_1 abstract view
.subckt sky130_fd_sc_hd__and3_1 A B C VGND VNB VPB VPWR X
.ends

* Black-box entry subcircuit for sky130_fd_sc_hd__fill_2 abstract view
.subckt sky130_fd_sc_hd__fill_2 VGND VNB VPB VPWR
.ends

* Black-box entry subcircuit for sky130_fd_sc_hd__buf_2 abstract view
.subckt sky130_fd_sc_hd__buf_2 A VGND VNB VPB VPWR X
.ends

* Black-box entry subcircuit for sky130_fd_sc_hd__a21bo_1 abstract view
.subckt sky130_fd_sc_hd__a21bo_1 A1 A2 B1_N VGND VNB VPB VPWR X
.ends

* Black-box entry subcircuit for sky130_fd_sc_hd__o221a_1 abstract view
.subckt sky130_fd_sc_hd__o221a_1 A1 A2 B1 B2 C1 VGND VNB VPB VPWR X
.ends

* Black-box entry subcircuit for sky130_fd_sc_hd__xnor2_1 abstract view
.subckt sky130_fd_sc_hd__xnor2_1 A B VGND VNB VPB VPWR Y
.ends

* Black-box entry subcircuit for sky130_fd_sc_hd__inv_2 abstract view
.subckt sky130_fd_sc_hd__inv_2 A VGND VNB VPB VPWR Y
.ends

* Black-box entry subcircuit for sky130_fd_sc_hd__a21oi_1 abstract view
.subckt sky130_fd_sc_hd__a21oi_1 A1 A2 B1 VGND VNB VPB VPWR Y
.ends

* Black-box entry subcircuit for sky130_fd_sc_hd__a31o_1 abstract view
.subckt sky130_fd_sc_hd__a31o_1 A1 A2 A3 B1 VGND VNB VPB VPWR X
.ends

* Black-box entry subcircuit for sky130_fd_sc_hd__nor2_2 abstract view
.subckt sky130_fd_sc_hd__nor2_2 A B VGND VNB VPB VPWR Y
.ends

* Black-box entry subcircuit for sky130_fd_sc_hd__decap_6 abstract view
.subckt sky130_fd_sc_hd__decap_6 VGND VNB VPB VPWR
.ends

* Black-box entry subcircuit for sky130_fd_sc_hd__a22o_1 abstract view
.subckt sky130_fd_sc_hd__a22o_1 A1 A2 B1 B2 VGND VNB VPB VPWR X
.ends

* Black-box entry subcircuit for sky130_fd_sc_hd__o31a_1 abstract view
.subckt sky130_fd_sc_hd__o31a_1 A1 A2 A3 B1 VGND VNB VPB VPWR X
.ends

* Black-box entry subcircuit for sky130_fd_sc_hd__and4_1 abstract view
.subckt sky130_fd_sc_hd__and4_1 A B C D VGND VNB VPB VPWR X
.ends

* Black-box entry subcircuit for sky130_fd_sc_hd__nand3b_4 abstract view
.subckt sky130_fd_sc_hd__nand3b_4 A_N B C VGND VNB VPB VPWR Y
.ends

* Black-box entry subcircuit for sky130_fd_sc_hd__a21o_1 abstract view
.subckt sky130_fd_sc_hd__a21o_1 A1 A2 B1 VGND VNB VPB VPWR X
.ends

* Black-box entry subcircuit for sky130_fd_sc_hd__or2b_1 abstract view
.subckt sky130_fd_sc_hd__or2b_1 A B_N VGND VNB VPB VPWR X
.ends

* Black-box entry subcircuit for sky130_fd_sc_hd__o21ai_1 abstract view
.subckt sky130_fd_sc_hd__o21ai_1 A1 A2 B1 VGND VNB VPB VPWR Y
.ends

* Black-box entry subcircuit for sky130_fd_sc_hd__o2bb2a_1 abstract view
.subckt sky130_fd_sc_hd__o2bb2a_1 A1_N A2_N B1 B2 VGND VNB VPB VPWR X
.ends

* Black-box entry subcircuit for sky130_fd_sc_hd__and3_2 abstract view
.subckt sky130_fd_sc_hd__and3_2 A B C VGND VNB VPB VPWR X
.ends

* Black-box entry subcircuit for sky130_fd_sc_hd__or3_1 abstract view
.subckt sky130_fd_sc_hd__or3_1 A B C VGND VNB VPB VPWR X
.ends

* Black-box entry subcircuit for sky130_fd_sc_hd__a211o_1 abstract view
.subckt sky130_fd_sc_hd__a211o_1 A1 A2 B1 C1 VGND VNB VPB VPWR X
.ends

* Black-box entry subcircuit for sky130_fd_sc_hd__o22a_1 abstract view
.subckt sky130_fd_sc_hd__o22a_1 A1 A2 B1 B2 VGND VNB VPB VPWR X
.ends

* Black-box entry subcircuit for sky130_fd_sc_hd__a22oi_2 abstract view
.subckt sky130_fd_sc_hd__a22oi_2 A1 A2 B1 B2 VGND VNB VPB VPWR Y
.ends

* Black-box entry subcircuit for sky130_fd_sc_hd__buf_6 abstract view
.subckt sky130_fd_sc_hd__buf_6 A VGND VNB VPB VPWR X
.ends

* Black-box entry subcircuit for sky130_fd_sc_hd__clkbuf_2 abstract view
.subckt sky130_fd_sc_hd__clkbuf_2 A VGND VNB VPB VPWR X
.ends

* Black-box entry subcircuit for sky130_fd_sc_hd__a22oi_1 abstract view
.subckt sky130_fd_sc_hd__a22oi_1 A1 A2 B1 B2 VGND VNB VPB VPWR Y
.ends

* Black-box entry subcircuit for sky130_fd_sc_hd__or2_1 abstract view
.subckt sky130_fd_sc_hd__or2_1 A B VGND VNB VPB VPWR X
.ends

* Black-box entry subcircuit for sky130_fd_sc_hd__and2b_1 abstract view
.subckt sky130_fd_sc_hd__and2b_1 A_N B VGND VNB VPB VPWR X
.ends

* Black-box entry subcircuit for sky130_fd_sc_hd__nand4_1 abstract view
.subckt sky130_fd_sc_hd__nand4_1 A B C D VGND VNB VPB VPWR Y
.ends

* Black-box entry subcircuit for sky130_fd_sc_hd__nand2_2 abstract view
.subckt sky130_fd_sc_hd__nand2_2 A B VGND VNB VPB VPWR Y
.ends

* Black-box entry subcircuit for sky130_fd_sc_hd__buf_4 abstract view
.subckt sky130_fd_sc_hd__buf_4 A VGND VNB VPB VPWR X
.ends

* Black-box entry subcircuit for sky130_fd_sc_hd__and3b_1 abstract view
.subckt sky130_fd_sc_hd__and3b_1 A_N B C VGND VNB VPB VPWR X
.ends

* Black-box entry subcircuit for sky130_fd_sc_hd__o21a_1 abstract view
.subckt sky130_fd_sc_hd__o21a_1 A1 A2 B1 VGND VNB VPB VPWR X
.ends

* Black-box entry subcircuit for sky130_fd_sc_hd__o311a_1 abstract view
.subckt sky130_fd_sc_hd__o311a_1 A1 A2 A3 B1 C1 VGND VNB VPB VPWR X
.ends

* Black-box entry subcircuit for sky130_fd_sc_hd__xnor2_2 abstract view
.subckt sky130_fd_sc_hd__xnor2_2 A B VGND VNB VPB VPWR Y
.ends

* Black-box entry subcircuit for sky130_fd_sc_hd__xor2_2 abstract view
.subckt sky130_fd_sc_hd__xor2_2 A B VGND VNB VPB VPWR X
.ends

* Black-box entry subcircuit for sky130_fd_sc_hd__nand3b_2 abstract view
.subckt sky130_fd_sc_hd__nand3b_2 A_N B C VGND VNB VPB VPWR Y
.ends

* Black-box entry subcircuit for sky130_fd_sc_hd__buf_1 abstract view
.subckt sky130_fd_sc_hd__buf_1 A VGND VNB VPB VPWR X
.ends

* Black-box entry subcircuit for sky130_fd_sc_hd__a311o_1 abstract view
.subckt sky130_fd_sc_hd__a311o_1 A1 A2 A3 B1 C1 VGND VNB VPB VPWR X
.ends

* Black-box entry subcircuit for sky130_fd_sc_hd__or3b_1 abstract view
.subckt sky130_fd_sc_hd__or3b_1 A B C_N VGND VNB VPB VPWR X
.ends

* Black-box entry subcircuit for sky130_fd_sc_hd__clkbuf_4 abstract view
.subckt sky130_fd_sc_hd__clkbuf_4 A VGND VNB VPB VPWR X
.ends

* Black-box entry subcircuit for sky130_fd_sc_hd__or2_2 abstract view
.subckt sky130_fd_sc_hd__or2_2 A B VGND VNB VPB VPWR X
.ends

* Black-box entry subcircuit for sky130_fd_sc_hd__o21bai_1 abstract view
.subckt sky130_fd_sc_hd__o21bai_1 A1 A2 B1_N VGND VNB VPB VPWR Y
.ends

* Black-box entry subcircuit for sky130_fd_sc_hd__or3_4 abstract view
.subckt sky130_fd_sc_hd__or3_4 A B C VGND VNB VPB VPWR X
.ends

* Black-box entry subcircuit for sky130_fd_sc_hd__a2bb2o_1 abstract view
.subckt sky130_fd_sc_hd__a2bb2o_1 A1_N A2_N B1 B2 VGND VNB VPB VPWR X
.ends

* Black-box entry subcircuit for sky130_fd_sc_hd__a211oi_1 abstract view
.subckt sky130_fd_sc_hd__a211oi_1 A1 A2 B1 C1 VGND VNB VPB VPWR Y
.ends

* Black-box entry subcircuit for sky130_fd_sc_hd__o211a_1 abstract view
.subckt sky130_fd_sc_hd__o211a_1 A1 A2 B1 C1 VGND VNB VPB VPWR X
.ends

* Black-box entry subcircuit for sky130_fd_sc_hd__a21boi_1 abstract view
.subckt sky130_fd_sc_hd__a21boi_1 A1 A2 B1_N VGND VNB VPB VPWR Y
.ends

* Black-box entry subcircuit for sky130_fd_sc_hd__a2111oi_4 abstract view
.subckt sky130_fd_sc_hd__a2111oi_4 A1 A2 B1 C1 D1 VGND VNB VPB VPWR Y
.ends

* Black-box entry subcircuit for sky130_fd_sc_hd__o211ai_1 abstract view
.subckt sky130_fd_sc_hd__o211ai_1 A1 A2 B1 C1 VGND VNB VPB VPWR Y
.ends

* Black-box entry subcircuit for sky130_fd_sc_hd__a211oi_2 abstract view
.subckt sky130_fd_sc_hd__a211oi_2 A1 A2 B1 C1 VGND VNB VPB VPWR Y
.ends

* Black-box entry subcircuit for sky130_fd_sc_hd__nand4_2 abstract view
.subckt sky130_fd_sc_hd__nand4_2 A B C D VGND VNB VPB VPWR Y
.ends

* Black-box entry subcircuit for sky130_fd_sc_hd__o32a_1 abstract view
.subckt sky130_fd_sc_hd__o32a_1 A1 A2 A3 B1 B2 VGND VNB VPB VPWR X
.ends

.subckt alu A[0] A[1] A[2] A[3] A[4] A[5] A[6] A[7] B[0] B[1] B[2] B[3] B[4] B[5]
+ B[6] B[7] VGND VPWR opcode[0] opcode[1] opcode[2] out[0] out[1] out[2] out[3] out[4]
+ out[5] out[6] out[7]
XFILLER_0_27_60 VPWR VGND VPWR VGND sky130_ef_sc_hd__decap_12
X_432_ _106_ _107_ _108_ VGND VGND VPWR VPWR _109_ sky130_fd_sc_hd__nand3_1
XFILLER_0_23_225 VGND VGND VPWR VPWR sky130_fd_sc_hd__decap_4
X_294_ _219_ _222_ VGND VGND VPWR VPWR _223_ sky130_fd_sc_hd__xor2_1
X_501_ _175_ _177_ VGND VGND VPWR VPWR _178_ sky130_fd_sc_hd__nand2_1
XFILLER_0_3_39 VPWR VGND VPWR VGND sky130_ef_sc_hd__decap_12
X_363_ _019_ _041_ VGND VGND VPWR VPWR _042_ sky130_fd_sc_hd__and2_1
XFILLER_0_38_81 VGND VGND VPWR VPWR sky130_fd_sc_hd__decap_3
XTAP_TAPCELL_ROW_37_231 VGND VPWR sky130_fd_sc_hd__tapvpwrvgnd_1
XFILLER_0_14_225 VGND VGND VPWR VPWR sky130_fd_sc_hd__fill_1
XTAP_TAPCELL_ROW_6_107 VGND VPWR sky130_fd_sc_hd__tapvpwrvgnd_1
X_346_ _022_ _024_ VGND VGND VPWR VPWR _025_ sky130_fd_sc_hd__and2_1
X_415_ _090_ _091_ VGND VGND VPWR VPWR _092_ sky130_fd_sc_hd__nor2_1
XTAP_TAPCELL_ROW_20_164 VGND VPWR sky130_fd_sc_hd__tapvpwrvgnd_1
XFILLER_0_18_29 VGND VGND VPWR VPWR sky130_fd_sc_hd__fill_1
XFILLER_0_24_83 VGND VGND VPWR VPWR sky130_fd_sc_hd__fill_1
XFILLER_0_24_50 VGND VGND VPWR VPWR sky130_fd_sc_hd__decap_8
X_277_ _182_ _197_ _205_ VGND VGND VPWR VPWR _207_ sky130_fd_sc_hd__and3_1
XFILLER_0_37_169 VPWR VGND VPWR VGND sky130_ef_sc_hd__decap_12
XFILLER_0_4_82 VGND VGND VPWR VPWR sky130_fd_sc_hd__fill_2
XFILLER_0_29_39 VGND VGND VPWR VPWR sky130_fd_sc_hd__decap_4
XFILLER_0_28_136 VGND VGND VPWR VPWR sky130_fd_sc_hd__decap_4
X_329_ _005_ _006_ _008_ VGND VGND VPWR VPWR _009_ sky130_fd_sc_hd__and3_1
XFILLER_0_0_29 VPWR VGND VPWR VGND sky130_ef_sc_hd__decap_12
XFILLER_0_3_225 VGND VGND VPWR VPWR sky130_fd_sc_hd__decap_4
XFILLER_0_9_27 VPWR VGND VPWR VGND sky130_ef_sc_hd__decap_12
XFILLER_0_10_41 VPWR VGND VPWR VGND sky130_ef_sc_hd__decap_12
XFILLER_0_10_85 VPWR VGND VPWR VGND sky130_ef_sc_hd__decap_12
XFILLER_0_34_139 VGND VGND VPWR VPWR sky130_fd_sc_hd__fill_1
XFILLER_0_19_169 VPWR VGND VPWR VGND sky130_ef_sc_hd__decap_12
XPHY_EDGE_ROW_8_Left_47 VGND VGND VPWR VPWR sky130_fd_sc_hd__decap_3
XFILLER_0_15_19 VPWR VGND VPWR VGND sky130_ef_sc_hd__decap_12
XFILLER_0_34_3 VPWR VGND VPWR VGND sky130_ef_sc_hd__decap_12
XFILLER_0_16_139 VGND VGND VPWR VPWR sky130_fd_sc_hd__fill_1
XFILLER_0_30_197 VPWR VGND VPWR VGND sky130_ef_sc_hd__decap_12
XFILLER_0_30_186 VGND VGND VPWR VPWR sky130_fd_sc_hd__decap_8
XFILLER_0_22_109 VGND VGND VPWR VPWR sky130_fd_sc_hd__decap_4
XFILLER_0_32_83 VGND VGND VPWR VPWR sky130_fd_sc_hd__fill_1
XFILLER_0_8_125 VPWR VGND VPWR VGND sky130_ef_sc_hd__decap_12
XFILLER_0_35_223 VGND VGND VPWR VPWR sky130_fd_sc_hd__fill_1
XFILLER_0_12_153 VPWR VGND VPWR VGND sky130_ef_sc_hd__decap_12
XFILLER_0_37_39 VPWR VGND VPWR VGND sky130_ef_sc_hd__decap_12
XFILLER_0_26_201 VPWR VGND VPWR VGND sky130_ef_sc_hd__decap_12
Xoutput20 net20 VGND VGND VPWR VPWR out[0] sky130_fd_sc_hd__buf_2
XFILLER_0_27_72 VGND VGND VPWR VPWR sky130_fd_sc_hd__decap_8
XFILLER_0_17_223 VGND VGND VPWR VPWR sky130_fd_sc_hd__fill_1
X_431_ _072_ _067_ _066_ VGND VGND VPWR VPWR _108_ sky130_fd_sc_hd__a21bo_1
XPHY_EDGE_ROW_37_Left_76 VGND VGND VPWR VPWR sky130_fd_sc_hd__decap_3
X_293_ _183_ _220_ _221_ VGND VGND VPWR VPWR _222_ sky130_fd_sc_hd__a21bo_1
X_500_ _187_ _133_ _135_ _200_ _181_ VGND VGND VPWR VPWR _177_ sky130_fd_sc_hd__o221a_1
XFILLER_0_2_109 VPWR VGND VPWR VGND sky130_ef_sc_hd__decap_12
X_362_ _021_ _040_ VGND VGND VPWR VPWR _041_ sky130_fd_sc_hd__xnor2_1
XTAP_TAPCELL_ROW_14_140 VGND VPWR sky130_fd_sc_hd__tapvpwrvgnd_1
XFILLER_0_13_63 VGND VGND VPWR VPWR sky130_fd_sc_hd__fill_1
XTAP_TAPCELL_ROW_6_108 VGND VPWR sky130_fd_sc_hd__tapvpwrvgnd_1
XTAP_TAPCELL_ROW_37_232 VGND VPWR sky130_fd_sc_hd__tapvpwrvgnd_1
XFILLER_0_34_29 VPWR VGND VPWR VGND sky130_ef_sc_hd__decap_12
XTAP_TAPCELL_ROW_20_165 VGND VPWR sky130_fd_sc_hd__tapvpwrvgnd_1
X_345_ _023_ VGND VGND VPWR VPWR _024_ sky130_fd_sc_hd__inv_2
X_414_ _176_ net15 _089_ VGND VGND VPWR VPWR _091_ sky130_fd_sc_hd__a21oi_1
XFILLER_0_11_229 VGND VGND VPWR VPWR sky130_fd_sc_hd__fill_1
X_276_ _183_ _205_ _197_ VGND VGND VPWR VPWR _206_ sky130_fd_sc_hd__a21oi_1
XPHY_EDGE_ROW_21_Right_21 VGND VGND VPWR VPWR sky130_fd_sc_hd__decap_3
XPHY_EDGE_ROW_12_Right_12 VGND VGND VPWR VPWR sky130_fd_sc_hd__decap_3
XPHY_EDGE_ROW_30_Right_30 VGND VGND VPWR VPWR sky130_fd_sc_hd__decap_3
X_328_ net1 _218_ _221_ _007_ VGND VGND VPWR VPWR _008_ sky130_fd_sc_hd__a31o_1
X_259_ net19 _185_ VGND VGND VPWR VPWR _190_ sky130_fd_sc_hd__nor2_2
XFILLER_0_9_39 VPWR VGND VPWR VGND sky130_ef_sc_hd__decap_12
XPHY_EDGE_ROW_24_Left_63 VGND VGND VPWR VPWR sky130_fd_sc_hd__decap_3
XFILLER_0_19_126 VPWR VGND VPWR VGND sky130_ef_sc_hd__decap_12
XFILLER_0_19_84 VGND VGND VPWR VPWR sky130_fd_sc_hd__fill_1
XFILLER_0_10_53 VPWR VGND VPWR VGND sky130_ef_sc_hd__decap_12
XFILLER_0_10_97 VPWR VGND VPWR VGND sky130_ef_sc_hd__decap_12
XFILLER_0_33_151 VPWR VGND VPWR VGND sky130_ef_sc_hd__decap_12
XFILLER_0_25_129 VGND VGND VPWR VPWR sky130_fd_sc_hd__decap_8
XFILLER_0_18_170 VPWR VGND VPWR VGND sky130_ef_sc_hd__decap_12
XFILLER_0_0_229 VGND VGND VPWR VPWR sky130_fd_sc_hd__fill_1
XFILLER_0_24_162 VGND VGND VPWR VPWR sky130_fd_sc_hd__fill_2
XFILLER_0_21_96 VPWR VGND VPWR VGND sky130_ef_sc_hd__decap_12
XFILLER_0_30_121 VPWR VGND VPWR VGND sky130_ef_sc_hd__decap_12
XFILLER_0_27_3 VPWR VGND VPWR VGND sky130_ef_sc_hd__decap_12
XFILLER_0_1_51 VGND VGND VPWR VPWR sky130_fd_sc_hd__decap_4
XFILLER_0_38_221 VGND VGND VPWR VPWR sky130_fd_sc_hd__decap_3
XFILLER_0_21_176 VGND VGND VPWR VPWR sky130_fd_sc_hd__decap_6
XFILLER_0_21_154 VGND VGND VPWR VPWR sky130_fd_sc_hd__fill_1
XFILLER_0_16_85 VPWR VGND VPWR VGND sky130_ef_sc_hd__decap_12
XFILLER_0_6_29 VGND VGND VPWR VPWR sky130_fd_sc_hd__decap_8
XFILLER_0_12_165 VGND VGND VPWR VPWR sky130_fd_sc_hd__decap_4
XPHY_EDGE_ROW_11_Left_50 VGND VGND VPWR VPWR sky130_fd_sc_hd__decap_3
XPHY_EDGE_ROW_6_Right_6 VGND VGND VPWR VPWR sky130_fd_sc_hd__decap_3
XFILLER_0_8_137 VGND VGND VPWR VPWR sky130_fd_sc_hd__decap_3
XFILLER_0_26_213 VPWR VGND VPWR VGND sky130_ef_sc_hd__decap_12
Xoutput21 net21 VGND VGND VPWR VPWR out[1] sky130_fd_sc_hd__buf_2
X_430_ _105_ _099_ _100_ VGND VGND VPWR VPWR _107_ sky130_fd_sc_hd__nand3_1
X_292_ net2 net28 _217_ _182_ VGND VGND VPWR VPWR _221_ sky130_fd_sc_hd__a22o_1
XFILLER_0_23_205 VPWR VGND VPWR VGND sky130_ef_sc_hd__decap_12
XTAP_TAPCELL_ROW_23_174 VGND VPWR sky130_fd_sc_hd__tapvpwrvgnd_1
X_361_ _218_ _241_ _227_ _205_ VGND VGND VPWR VPWR _040_ sky130_fd_sc_hd__o31a_1
XFILLER_0_4_195 VGND VGND VPWR VPWR sky130_fd_sc_hd__fill_1
XFILLER_0_7_72 VPWR VGND VPWR VGND sky130_ef_sc_hd__decap_12
XTAP_TAPCELL_ROW_14_141 VGND VPWR sky130_fd_sc_hd__tapvpwrvgnd_1
XTAP_TAPCELL_ROW_6_109 VGND VPWR sky130_fd_sc_hd__tapvpwrvgnd_1
XTAP_TAPCELL_ROW_37_233 VGND VPWR sky130_fd_sc_hd__tapvpwrvgnd_1
X_344_ net1 net2 net12 net13 VGND VGND VPWR VPWR _023_ sky130_fd_sc_hd__and4_1
X_413_ net1 net15 _089_ VGND VGND VPWR VPWR _090_ sky130_fd_sc_hd__and3_1
X_275_ net17 net18 net19 VGND VGND VPWR VPWR _205_ sky130_fd_sc_hd__nand3b_4
XFILLER_0_24_96 VPWR VGND VPWR VGND sky130_ef_sc_hd__decap_12
XFILLER_0_24_85 VGND VGND VPWR VPWR sky130_fd_sc_hd__decap_4
XTAP_TAPCELL_ROW_31_206 VGND VPWR sky130_fd_sc_hd__tapvpwrvgnd_1
XFILLER_0_35_51 VGND VGND VPWR VPWR sky130_fd_sc_hd__fill_1
X_327_ _182_ net2 net28 _217_ VGND VGND VPWR VPWR _007_ sky130_fd_sc_hd__and4_1
XFILLER_0_19_138 VGND VGND VPWR VPWR sky130_fd_sc_hd__decap_6
X_258_ _186_ _180_ VGND VGND VPWR VPWR _189_ sky130_fd_sc_hd__nor2_2
XTAP_TAPCELL_ROW_0_80 VGND VPWR sky130_fd_sc_hd__tapvpwrvgnd_1
XFILLER_0_3_205 VPWR VGND VPWR VGND sky130_ef_sc_hd__decap_12
XFILLER_0_10_65 VPWR VGND VPWR VGND sky130_ef_sc_hd__decap_12
XFILLER_0_33_163 VGND VGND VPWR VPWR sky130_fd_sc_hd__decap_4
XFILLER_0_27_182 VPWR VGND VPWR VGND sky130_ef_sc_hd__decap_12
XFILLER_0_18_182 VPWR VGND VPWR VGND sky130_ef_sc_hd__decap_12
XFILLER_0_21_64 VGND VGND VPWR VPWR sky130_fd_sc_hd__decap_4
XFILLER_0_30_133 VGND VGND VPWR VPWR sky130_fd_sc_hd__decap_6
XFILLER_0_32_85 VPWR VGND VPWR VGND sky130_ef_sc_hd__decap_12
XFILLER_0_32_41 VPWR VGND VPWR VGND sky130_ef_sc_hd__decap_12
XFILLER_0_29_211 VPWR VGND VPWR VGND sky130_ef_sc_hd__decap_12
XFILLER_0_16_97 VPWR VGND VPWR VGND sky130_ef_sc_hd__decap_12
XFILLER_0_12_177 VGND VGND VPWR VPWR sky130_fd_sc_hd__decap_4
XFILLER_0_8_149 VGND VGND VPWR VPWR sky130_fd_sc_hd__fill_2
XFILLER_0_35_225 VGND VGND VPWR VPWR sky130_fd_sc_hd__decap_4
Xoutput22 net22 VGND VGND VPWR VPWR out[2] sky130_fd_sc_hd__buf_2
XFILLER_0_9_3 VPWR VGND VPWR VGND sky130_ef_sc_hd__decap_12
XFILLER_0_26_225 VGND VGND VPWR VPWR sky130_fd_sc_hd__decap_4
XTAP_TAPCELL_ROW_17_150 VGND VPWR sky130_fd_sc_hd__tapvpwrvgnd_1
XTAP_TAPCELL_ROW_23_175 VGND VPWR sky130_fd_sc_hd__tapvpwrvgnd_1
X_291_ _193_ _197_ _217_ VGND VGND VPWR VPWR _220_ sky130_fd_sc_hd__and3_1
X_360_ _189_ _037_ _038_ VGND VGND VPWR VPWR _039_ sky130_fd_sc_hd__and3_1
XFILLER_0_17_225 VGND VGND VPWR VPWR sky130_fd_sc_hd__decap_4
XFILLER_0_4_141 VPWR VGND VPWR VGND sky130_ef_sc_hd__decap_12
XFILLER_0_7_51 VGND VGND VPWR VPWR sky130_fd_sc_hd__decap_4
XFILLER_0_7_84 VPWR VGND VPWR VGND sky130_ef_sc_hd__decap_12
XTAP_TAPCELL_ROW_9_118 VGND VPWR sky130_fd_sc_hd__tapvpwrvgnd_1
X_489_ _162_ _163_ _164_ VGND VGND VPWR VPWR _165_ sky130_fd_sc_hd__a21o_1
XFILLER_0_23_217 VGND VGND VPWR VPWR sky130_fd_sc_hd__decap_6
XFILLER_0_1_111 VGND VGND VPWR VPWR sky130_fd_sc_hd__fill_1
X_343_ net2 net12 _021_ net1 VGND VGND VPWR VPWR _022_ sky130_fd_sc_hd__a22o_1
X_412_ net1 net14 _070_ _069_ VGND VGND VPWR VPWR _089_ sky130_fd_sc_hd__a31o_1
X_274_ net1 _183_ VGND VGND VPWR VPWR _204_ sky130_fd_sc_hd__or2b_1
XFILLER_0_4_41 VPWR VGND VPWR VGND sky130_ef_sc_hd__decap_12
XFILLER_0_4_85 VGND VGND VPWR VPWR sky130_fd_sc_hd__decap_8
XFILLER_0_6_203 VPWR VGND VPWR VGND sky130_ef_sc_hd__decap_12
XFILLER_0_35_63 VPWR VGND VPWR VGND sky130_ef_sc_hd__decap_12
XTAP_TAPCELL_ROW_31_207 VGND VPWR sky130_fd_sc_hd__tapvpwrvgnd_1
X_326_ _003_ _004_ _002_ VGND VGND VPWR VPWR _006_ sky130_fd_sc_hd__o21ai_1
XFILLER_0_28_117 VPWR VGND VPWR VGND sky130_ef_sc_hd__decap_12
XFILLER_0_19_75 VGND VGND VPWR VPWR sky130_fd_sc_hd__fill_1
XFILLER_0_19_31 VPWR VGND VPWR VGND sky130_ef_sc_hd__decap_12
X_257_ _176_ _183_ _187_ VGND VGND VPWR VPWR _188_ sky130_fd_sc_hd__nand3_1
XTAP_TAPCELL_ROW_0_81 VGND VPWR sky130_fd_sc_hd__tapvpwrvgnd_1
XFILLER_0_3_217 VGND VGND VPWR VPWR sky130_fd_sc_hd__decap_6
XFILLER_0_10_77 VGND VGND VPWR VPWR sky130_fd_sc_hd__decap_6
XFILLER_0_34_109 VPWR VGND VPWR VGND sky130_ef_sc_hd__decap_12
XFILLER_0_27_194 VPWR VGND VPWR VGND sky130_ef_sc_hd__decap_12
XFILLER_0_33_142 VGND VGND VPWR VPWR sky130_fd_sc_hd__fill_2
XFILLER_0_25_109 VGND VGND VPWR VPWR sky130_fd_sc_hd__decap_3
XFILLER_0_21_54 VGND VGND VPWR VPWR sky130_fd_sc_hd__fill_2
XFILLER_0_18_194 VGND VGND VPWR VPWR sky130_fd_sc_hd__fill_2
XFILLER_0_16_109 VPWR VGND VPWR VGND sky130_ef_sc_hd__decap_12
X_309_ _217_ _195_ _226_ _237_ VGND VGND VPWR VPWR net22 sky130_fd_sc_hd__o2bb2a_1
XFILLER_0_0_209 VPWR VGND VPWR VGND sky130_ef_sc_hd__decap_12
XFILLER_0_24_197 VPWR VGND VPWR VGND sky130_ef_sc_hd__decap_12
XFILLER_0_30_156 VPWR VGND VPWR VGND sky130_ef_sc_hd__decap_12
XFILLER_0_32_53 VPWR VGND VPWR VGND sky130_ef_sc_hd__decap_12
XFILLER_0_29_223 VGND VGND VPWR VPWR sky130_fd_sc_hd__fill_1
XFILLER_0_16_65 VPWR VGND VPWR VGND sky130_ef_sc_hd__decap_12
XFILLER_0_12_189 VGND VGND VPWR VPWR sky130_fd_sc_hd__decap_6
XFILLER_0_32_3 VPWR VGND VPWR VGND sky130_ef_sc_hd__decap_12
Xoutput23 net23 VGND VGND VPWR VPWR out[3] sky130_fd_sc_hd__buf_2
XFILLER_0_27_97 VGND VGND VPWR VPWR sky130_fd_sc_hd__decap_8
XFILLER_0_5_109 VGND VGND VPWR VPWR sky130_fd_sc_hd__decap_3
XFILLER_0_32_229 VGND VGND VPWR VPWR sky130_fd_sc_hd__fill_1
XTAP_TAPCELL_ROW_17_151 VGND VPWR sky130_fd_sc_hd__tapvpwrvgnd_1
XFILLER_0_4_153 VPWR VGND VPWR VGND sky130_ef_sc_hd__decap_12
XFILLER_0_4_197 VPWR VGND VPWR VGND sky130_ef_sc_hd__decap_12
XFILLER_0_7_96 VPWR VGND VPWR VGND sky130_ef_sc_hd__decap_12
XTAP_TAPCELL_ROW_9_119 VGND VPWR sky130_fd_sc_hd__tapvpwrvgnd_1
X_488_ _099_ _107_ VGND VGND VPWR VPWR _164_ sky130_fd_sc_hd__nand2_1
XFILLER_0_23_229 VGND VGND VPWR VPWR sky130_fd_sc_hd__fill_1
XTAP_TAPCELL_ROW_23_176 VGND VPWR sky130_fd_sc_hd__tapvpwrvgnd_1
X_290_ _176_ _218_ VGND VGND VPWR VPWR _219_ sky130_fd_sc_hd__nand2_1
XFILLER_0_13_55 VGND VGND VPWR VPWR sky130_fd_sc_hd__fill_1
XFILLER_0_38_85 VPWR VGND VPWR VGND sky130_ef_sc_hd__decap_12
XFILLER_0_38_41 VPWR VGND VPWR VGND sky130_ef_sc_hd__decap_12
XFILLER_0_1_167 VGND VGND VPWR VPWR sky130_fd_sc_hd__fill_1
XFILLER_0_9_223 VGND VGND VPWR VPWR sky130_fd_sc_hd__fill_1
X_411_ _073_ _074_ _075_ VGND VGND VPWR VPWR _088_ sky130_fd_sc_hd__nand3_1
X_342_ net13 VGND VGND VPWR VPWR _021_ sky130_fd_sc_hd__buf_2
X_273_ net19 _180_ _185_ VGND VGND VPWR VPWR _203_ sky130_fd_sc_hd__and3_2
XFILLER_0_24_65 VPWR VGND VPWR VGND sky130_ef_sc_hd__decap_12
XFILLER_0_10_221 VGND VGND VPWR VPWR sky130_fd_sc_hd__decap_4
XFILLER_0_6_215 VPWR VGND VPWR VGND sky130_ef_sc_hd__decap_12
XFILLER_0_4_53 VPWR VGND VPWR VGND sky130_ef_sc_hd__decap_12
XFILLER_0_36_195 VGND VGND VPWR VPWR sky130_fd_sc_hd__fill_1
XTAP_TAPCELL_ROW_31_208 VGND VPWR sky130_fd_sc_hd__tapvpwrvgnd_1
X_325_ _002_ _003_ _004_ VGND VGND VPWR VPWR _005_ sky130_fd_sc_hd__or3_1
XFILLER_0_19_43 VPWR VGND VPWR VGND sky130_ef_sc_hd__decap_12
X_256_ net17 _186_ VGND VGND VPWR VPWR _187_ sky130_fd_sc_hd__nand2_1
XTAP_TAPCELL_ROW_0_82 VGND VPWR sky130_fd_sc_hd__tapvpwrvgnd_1
XFILLER_0_3_229 VGND VGND VPWR VPWR sky130_fd_sc_hd__fill_1
XFILLER_0_35_75 VPWR VGND VPWR VGND sky130_ef_sc_hd__decap_12
XPHY_EDGE_ROW_28_Left_67 VGND VGND VPWR VPWR sky130_fd_sc_hd__decap_3
XFILLER_0_18_151 VPWR VGND VPWR VGND sky130_ef_sc_hd__decap_12
XFILLER_0_24_154 VGND VGND VPWR VPWR sky130_fd_sc_hd__decap_8
X_308_ _231_ _232_ _236_ _195_ VGND VGND VPWR VPWR _237_ sky130_fd_sc_hd__a211o_1
XFILLER_0_30_146 VGND VGND VPWR VPWR sky130_fd_sc_hd__decap_3
XFILLER_0_15_110 VGND VGND VPWR VPWR sky130_fd_sc_hd__fill_2
XFILLER_0_32_65 VPWR VGND VPWR VGND sky130_ef_sc_hd__decap_12
XFILLER_0_21_113 VPWR VGND VPWR VGND sky130_ef_sc_hd__decap_12
XFILLER_0_16_77 VGND VGND VPWR VPWR sky130_fd_sc_hd__decap_6
XFILLER_0_35_205 VPWR VGND VPWR VGND sky130_ef_sc_hd__decap_12
XFILLER_0_25_3 VPWR VGND VPWR VGND sky130_ef_sc_hd__decap_12
Xoutput24 net24 VGND VGND VPWR VPWR out[4] sky130_fd_sc_hd__buf_2
XPHY_EDGE_ROW_28_Right_28 VGND VGND VPWR VPWR sky130_fd_sc_hd__decap_3
XPHY_EDGE_ROW_19_Right_19 VGND VGND VPWR VPWR sky130_fd_sc_hd__decap_3
XPHY_EDGE_ROW_37_Right_37 VGND VGND VPWR VPWR sky130_fd_sc_hd__decap_3
XFILLER_0_17_205 VPWR VGND VPWR VGND sky130_ef_sc_hd__decap_12
XTAP_TAPCELL_ROW_17_152 VGND VPWR sky130_fd_sc_hd__tapvpwrvgnd_1
XPHY_EDGE_ROW_15_Left_54 VGND VGND VPWR VPWR sky130_fd_sc_hd__decap_3
XFILLER_0_4_165 VPWR VGND VPWR VGND sky130_ef_sc_hd__decap_12
XTAP_TAPCELL_ROW_23_177 VGND VPWR sky130_fd_sc_hd__tapvpwrvgnd_1
XFILLER_0_38_97 VGND VGND VPWR VPWR sky130_fd_sc_hd__decap_8
XFILLER_0_38_53 VGND VGND VPWR VPWR sky130_fd_sc_hd__decap_3
X_487_ _153_ _154_ _161_ VGND VGND VPWR VPWR _163_ sky130_fd_sc_hd__nand3_1
XFILLER_0_1_113 VPWR VGND VPWR VGND sky130_ef_sc_hd__decap_12
X_341_ _176_ _241_ _010_ _009_ VGND VGND VPWR VPWR _020_ sky130_fd_sc_hd__a31o_1
X_272_ _193_ _197_ _198_ _201_ VGND VGND VPWR VPWR _202_ sky130_fd_sc_hd__o22a_1
XPHY_EDGE_ROW_0_Left_39 VGND VGND VPWR VPWR sky130_fd_sc_hd__decap_3
X_410_ _052_ _195_ _087_ VGND VGND VPWR VPWR net25 sky130_fd_sc_hd__a21oi_1
XFILLER_0_24_77 VGND VGND VPWR VPWR sky130_fd_sc_hd__decap_6
XFILLER_0_6_227 VGND VGND VPWR VPWR sky130_fd_sc_hd__decap_3
XFILLER_0_36_141 VPWR VGND VPWR VGND sky130_ef_sc_hd__decap_12
XFILLER_0_36_130 VGND VGND VPWR VPWR sky130_fd_sc_hd__decap_8
XTAP_TAPCELL_ROW_31_209 VGND VPWR sky130_fd_sc_hd__tapvpwrvgnd_1
X_324_ net28 net3 _238_ _182_ VGND VGND VPWR VPWR _004_ sky130_fd_sc_hd__a22oi_2
X_255_ net19 VGND VGND VPWR VPWR _186_ sky130_fd_sc_hd__inv_2
XFILLER_0_35_87 VGND VGND VPWR VPWR sky130_fd_sc_hd__decap_8
XFILLER_0_19_55 VGND VGND VPWR VPWR sky130_fd_sc_hd__fill_1
XTAP_TAPCELL_ROW_0_83 VGND VPWR sky130_fd_sc_hd__tapvpwrvgnd_1
XFILLER_0_18_163 VGND VGND VPWR VPWR sky130_fd_sc_hd__decap_4
XFILLER_0_18_141 VGND VGND VPWR VPWR sky130_fd_sc_hd__fill_2
XPHY_EDGE_ROW_3_Left_42 VGND VGND VPWR VPWR sky130_fd_sc_hd__decap_3
XFILLER_0_24_177 VGND VGND VPWR VPWR sky130_fd_sc_hd__decap_8
XFILLER_0_24_122 VPWR VGND VPWR VGND sky130_ef_sc_hd__decap_12
XFILLER_0_21_34 VPWR VGND VPWR VGND sky130_ef_sc_hd__decap_12
X_307_ _217_ _218_ _190_ _235_ VGND VGND VPWR VPWR _236_ sky130_fd_sc_hd__a31o_1
XFILLER_0_1_55 VGND VGND VPWR VPWR sky130_fd_sc_hd__fill_1
XFILLER_0_38_225 VGND VGND VPWR VPWR sky130_fd_sc_hd__decap_4
XFILLER_0_32_77 VGND VGND VPWR VPWR sky130_fd_sc_hd__decap_6
XFILLER_0_29_225 VGND VGND VPWR VPWR sky130_fd_sc_hd__decap_4
XFILLER_0_21_125 VPWR VGND VPWR VGND sky130_ef_sc_hd__decap_12
XFILLER_0_35_217 VGND VGND VPWR VPWR sky130_fd_sc_hd__decap_6
XFILLER_0_18_3 VPWR VGND VPWR VGND sky130_ef_sc_hd__decap_12
XTAP_TAPCELL_ROW_26_186 VGND VPWR sky130_fd_sc_hd__tapvpwrvgnd_1
Xoutput25 net25 VGND VGND VPWR VPWR out[5] sky130_fd_sc_hd__buf_2
XFILLER_0_32_209 VPWR VGND VPWR VGND sky130_ef_sc_hd__decap_12
XTAP_TAPCELL_ROW_17_153 VGND VPWR sky130_fd_sc_hd__tapvpwrvgnd_1
XFILLER_0_17_217 VGND VGND VPWR VPWR sky130_fd_sc_hd__decap_6
XFILLER_0_4_100 VPWR VGND VPWR VGND sky130_ef_sc_hd__decap_12
XFILLER_0_4_177 VPWR VGND VPWR VGND sky130_ef_sc_hd__decap_12
XFILLER_0_7_65 VGND VGND VPWR VPWR sky130_fd_sc_hd__decap_3
XFILLER_0_7_3 VPWR VGND VPWR VGND sky130_ef_sc_hd__decap_12
XPHY_EDGE_ROW_32_Left_71 VGND VGND VPWR VPWR sky130_fd_sc_hd__decap_3
X_486_ _153_ _154_ _161_ VGND VGND VPWR VPWR _162_ sky130_fd_sc_hd__a21o_1
XFILLER_0_14_209 VPWR VGND VPWR VGND sky130_ef_sc_hd__decap_12
XFILLER_0_13_57 VGND VGND VPWR VPWR sky130_fd_sc_hd__decap_6
XFILLER_0_13_35 VGND VGND VPWR VPWR sky130_fd_sc_hd__fill_1
XFILLER_0_1_169 VPWR VGND VPWR VGND sky130_ef_sc_hd__decap_12
XFILLER_0_1_125 VPWR VGND VPWR VGND sky130_ef_sc_hd__decap_12
XTAP_TAPCELL_ROW_3_94 VGND VPWR sky130_fd_sc_hd__tapvpwrvgnd_1
XTAP_TAPCELL_ROW_5_102 VGND VPWR sky130_fd_sc_hd__tapvpwrvgnd_1
XFILLER_0_9_225 VGND VGND VPWR VPWR sky130_fd_sc_hd__decap_4
X_340_ net5 VGND VGND VPWR VPWR _019_ sky130_fd_sc_hd__buf_6
XTAP_TAPCELL_ROW_34_218 VGND VPWR sky130_fd_sc_hd__tapvpwrvgnd_1
X_271_ _193_ _197_ _200_ VGND VGND VPWR VPWR _201_ sky130_fd_sc_hd__a21oi_1
XTAP_TAPCELL_ROW_11_126 VGND VPWR sky130_fd_sc_hd__tapvpwrvgnd_1
X_469_ _182_ _196_ net7 net8 VGND VGND VPWR VPWR _145_ sky130_fd_sc_hd__and4_1
XFILLER_0_36_197 VPWR VGND VPWR VGND sky130_ef_sc_hd__decap_12
X_323_ net9 net10 net3 net4 VGND VGND VPWR VPWR _003_ sky130_fd_sc_hd__and4_1
X_254_ net17 net18 VGND VGND VPWR VPWR _185_ sky130_fd_sc_hd__nand2_1
XTAP_TAPCELL_ROW_0_84 VGND VPWR sky130_fd_sc_hd__tapvpwrvgnd_1
XFILLER_0_33_167 VGND VGND VPWR VPWR sky130_fd_sc_hd__fill_1
XFILLER_0_18_197 VPWR VGND VPWR VGND sky130_ef_sc_hd__decap_12
XFILLER_0_18_131 VGND VGND VPWR VPWR sky130_fd_sc_hd__decap_4
XFILLER_0_24_134 VGND VGND VPWR VPWR sky130_fd_sc_hd__decap_6
XFILLER_0_21_68 VGND VGND VPWR VPWR sky130_fd_sc_hd__fill_1
XFILLER_0_21_46 VGND VGND VPWR VPWR sky130_fd_sc_hd__decap_8
X_306_ _217_ _218_ _198_ _234_ VGND VGND VPWR VPWR _235_ sky130_fd_sc_hd__o22a_1
XFILLER_0_15_167 VGND VGND VPWR VPWR sky130_fd_sc_hd__fill_1
XFILLER_0_21_148 VGND VGND VPWR VPWR sky130_fd_sc_hd__decap_6
XFILLER_0_21_137 VGND VGND VPWR VPWR sky130_fd_sc_hd__decap_4
XFILLER_0_20_181 VPWR VGND VPWR VGND sky130_ef_sc_hd__decap_12
XFILLER_0_12_137 VGND VGND VPWR VPWR sky130_fd_sc_hd__decap_3
XFILLER_0_35_229 VGND VGND VPWR VPWR sky130_fd_sc_hd__fill_1
XFILLER_0_26_229 VGND VGND VPWR VPWR sky130_fd_sc_hd__fill_1
XTAP_TAPCELL_ROW_26_187 VGND VPWR sky130_fd_sc_hd__tapvpwrvgnd_1
XFILLER_0_11_181 VPWR VGND VPWR VGND sky130_ef_sc_hd__decap_12
XPHY_EDGE_ROW_1_Right_1 VGND VGND VPWR VPWR sky130_fd_sc_hd__decap_3
Xoutput26 net26 VGND VGND VPWR VPWR out[6] sky130_fd_sc_hd__buf_2
XFILLER_0_17_229 VGND VGND VPWR VPWR sky130_fd_sc_hd__fill_1
XFILLER_0_4_112 VPWR VGND VPWR VGND sky130_ef_sc_hd__decap_12
XFILLER_0_30_3 VPWR VGND VPWR VGND sky130_ef_sc_hd__decap_12
XFILLER_0_4_189 VGND VGND VPWR VPWR sky130_fd_sc_hd__decap_6
XFILLER_0_7_55 VGND VGND VPWR VPWR sky130_fd_sc_hd__fill_1
X_485_ _090_ _160_ VGND VGND VPWR VPWR _161_ sky130_fd_sc_hd__xnor2_1
XFILLER_0_22_221 VGND VGND VPWR VPWR sky130_fd_sc_hd__decap_4
XFILLER_0_13_47 VGND VGND VPWR VPWR sky130_fd_sc_hd__decap_8
XFILLER_0_1_137 VPWR VGND VPWR VGND sky130_ef_sc_hd__decap_12
XTAP_TAPCELL_ROW_3_95 VGND VPWR sky130_fd_sc_hd__tapvpwrvgnd_1
XFILLER_0_0_181 VPWR VGND VPWR VGND sky130_ef_sc_hd__decap_12
XTAP_TAPCELL_ROW_5_103 VGND VPWR sky130_fd_sc_hd__tapvpwrvgnd_1
X_270_ _199_ VGND VGND VPWR VPWR _200_ sky130_fd_sc_hd__clkbuf_2
XTAP_TAPCELL_ROW_11_127 VGND VPWR sky130_fd_sc_hd__tapvpwrvgnd_1