*SPEF "ieee 1481-1999"
*DESIGN "twos_complement"
*DATE "20:39:55 Saturday April 26, 2025"
*VENDOR "The OpenROAD Project"
*PROGRAM "OpenROAD"
*VERSION "b16bda7e82721d10566ff7e2b68f1ff0be9f9e38"
*DESIGN_FLOW "NAME_SCOPE LOCAL" "PIN_CAP NONE"
*DIVIDER /
*DELIMITER :
*BUS_DELIMITER []
*T_UNIT 1 NS
*C_UNIT 1 PF
*R_UNIT 1 OHM
*L_UNIT 1 HENRY

*NAME_MAP
*3 in[0]
*4 in[1]
*5 in[2]
*6 in[3]
*7 in[4]
*8 in[5]
*9 in[6]
*10 in[7]
*11 out[0]
*12 out[1]
*13 out[2]
*14 out[3]
*15 out[4]
*16 out[5]
*17 out[6]
*18 out[7]
*19 _00_
*20 _01_
*21 _02_
*22 _03_
*23 _04_
*24 _05_
*25 _06_
*26 _07_
*27 _08_
*28 net1
*29 net10
*30 net11
*31 net12
*32 net13
*33 net14
*34 net15
*35 net16
*36 net2
*37 net3
*38 net4
*39 net5
*40 net6
*41 net7
*42 net8
*43 net9
*44 FILLER_0_0_15
*45 FILLER_0_0_21
*46 FILLER_0_0_27
*47 FILLER_0_0_29
*48 FILLER_0_0_3
*49 FILLER_0_0_35
*50 FILLER_0_0_41
*51 FILLER_0_0_53
*52 FILLER_0_1_15
*53 FILLER_0_1_19
*54 FILLER_0_1_23
*55 FILLER_0_1_3
*56 FILLER_0_1_31
*57 FILLER_0_1_39
*58 FILLER_0_1_51
*59 FILLER_0_1_55
*60 FILLER_0_2_11
*61 FILLER_0_2_26
*62 FILLER_0_2_29
*63 FILLER_0_2_3
*64 FILLER_0_2_37
*65 FILLER_0_2_47
*66 FILLER_0_2_51
*67 FILLER_0_3_15
*68 FILLER_0_3_22
*69 FILLER_0_3_3
*70 FILLER_0_3_34
*71 FILLER_0_3_46
*72 FILLER_0_3_54
*73 FILLER_0_4_15
*74 FILLER_0_4_27
*75 FILLER_0_4_29
*76 FILLER_0_4_3
*77 FILLER_0_4_41
*78 FILLER_0_4_53
*79 FILLER_0_5_15
*80 FILLER_0_5_27
*81 FILLER_0_5_3
*82 FILLER_0_5_39
*83 FILLER_0_5_50
*84 FILLER_0_6_11
*85 FILLER_0_6_17
*86 FILLER_0_6_22
*87 FILLER_0_6_29
*88 FILLER_0_6_41
*89 FILLER_0_6_53
*90 FILLER_0_7_14
*91 FILLER_0_7_3
*92 FILLER_0_7_39
*93 FILLER_0_7_51
*94 FILLER_0_7_55
*95 FILLER_0_8_15
*96 FILLER_0_8_27
*97 FILLER_0_8_29
*98 FILLER_0_8_3
*99 FILLER_0_8_38
*100 FILLER_0_8_50
*101 FILLER_0_8_56
*102 FILLER_0_9_20
*103 FILLER_0_9_27
*104 FILLER_0_9_29
*105 FILLER_0_9_37
*106 FILLER_0_9_44
*107 FILLER_0_9_9
*108 PHY_EDGE_ROW_0_Left_10
*109 PHY_EDGE_ROW_0_Right_0
*110 PHY_EDGE_ROW_1_Left_11
*111 PHY_EDGE_ROW_1_Right_1
*112 PHY_EDGE_ROW_2_Left_12
*113 PHY_EDGE_ROW_2_Right_2
*114 PHY_EDGE_ROW_3_Left_13
*115 PHY_EDGE_ROW_3_Right_3
*116 PHY_EDGE_ROW_4_Left_14
*117 PHY_EDGE_ROW_4_Right_4
*118 PHY_EDGE_ROW_5_Left_15
*119 PHY_EDGE_ROW_5_Right_5
*120 PHY_EDGE_ROW_6_Left_16
*121 PHY_EDGE_ROW_6_Right_6
*122 PHY_EDGE_ROW_7_Left_17
*123 PHY_EDGE_ROW_7_Right_7
*124 PHY_EDGE_ROW_8_Left_18
*125 PHY_EDGE_ROW_8_Right_8
*126 PHY_EDGE_ROW_9_Left_19
*127 PHY_EDGE_ROW_9_Right_9
*128 TAP_TAPCELL_ROW_0_20
*129 TAP_TAPCELL_ROW_0_21
*130 TAP_TAPCELL_ROW_1_22
*131 TAP_TAPCELL_ROW_2_23
*132 TAP_TAPCELL_ROW_3_24
*133 TAP_TAPCELL_ROW_4_25
*134 TAP_TAPCELL_ROW_5_26
*135 TAP_TAPCELL_ROW_6_27
*136 TAP_TAPCELL_ROW_7_28
*137 TAP_TAPCELL_ROW_8_29
*138 TAP_TAPCELL_ROW_9_30
*139 TAP_TAPCELL_ROW_9_31
*140 _09_
*141 _10_
*142 _11_
*143 _12_
*144 _13_
*145 _14_
*146 _15_
*147 _16_
*148 _17_
*149 _18_
*150 _19_
*151 _20_
*152 _21_
*153 _22_
*154 _23_
*155 _24_
*156 _25_
*157 input1
*158 input2
*159 input3
*160 input4
*161 input5
*162 input6
*163 input7
*164 input8
*165 output10
*166 output11
*167 output12
*168 output13
*169 output14
*170 output15
*171 output16
*172 output9

*PORTS
in[0] I
in[1] I
in[2] I
in[3] I
in[4] I
in[5] I
in[6] I
in[7] I
out[0] O
out[1] O
out[2] O
out[3] O
out[4] O
out[5] O
out[6] O
out[7] O

*D_NET *3 0.00057407
*CONN
*P in[0] I
*I *157:A I *D sky130_fd_sc_hd__buf_1
*CAP
1 in[0] 0.000269221
2 *157:A 0.000269221
3 *157:A *158:A 3.19385e-05
4 *157:A *28:14 3.69047e-06
*RES
1 in[0] *157:A 20.4803 
*END

*D_NET *4 0.00100187
*CONN
*P in[1] I
*I *158:A I *D sky130_fd_sc_hd__buf_1
*CAP
1 in[1] 0.000392114
2 *158:A 0.000392114
3 *158:A out[0] 5.48561e-05
4 *158:A out[1] 0
5 *158:A *28:14 0.000130847
6 *158:A *36:12 0
7 *157:A *158:A 3.19385e-05
*RES
1 in[1] *158:A 21.2663 
*END

*D_NET *5 0.000872093
*CONN
*P in[2] I
*I *159:A I *D sky130_fd_sc_hd__clkbuf_1
*CAP
1 in[2] 0.000436047
2 *159:A 0.000436047
3 *159:A *160:A 0
*RES
1 in[2] *159:A 22.4429 
*END

*D_NET *6 0.000870656
*CONN
*P in[3] I
*I *160:A I *D sky130_fd_sc_hd__clkbuf_1
*CAP
1 in[3] 0.000435328
2 *160:A 0.000435328
3 *160:A out[3] 0
4 *159:A *160:A 0
*RES
1 in[3] *160:A 22.4429 
*END

*D_NET *7 0.000953258
*CONN
*P in[4] I
*I *161:A I *D sky130_fd_sc_hd__buf_1
*CAP
1 in[4] 0.000458178
2 *161:A 0.000458178
3 *161:A out[5] 0
4 *161:A *39:14 3.69013e-05
*RES
1 in[4] *161:A 22.6571 
*END

*D_NET *8 0.000852164
*CONN
*P in[5] I
*I *162:A I *D sky130_fd_sc_hd__buf_1
*CAP
1 in[5] 0.000424017
2 *162:A 0.000424017
3 *162:A out[4] 0
4 *162:A out[5] 0
5 *162:A *169:A 4.13122e-06
*RES
1 in[5] *162:A 21.8357 
*END

*D_NET *9 0.00084125
*CONN
*P in[6] I
*I *163:A I *D sky130_fd_sc_hd__clkbuf_1
*CAP
1 in[6] 0.000375736
2 *163:A 0.000375736
3 *163:A out[6] 5.55866e-05
4 *163:A out[7] 3.41918e-05
*RES
1 in[6] *163:A 19.9443 
*END

*D_NET *10 0.000992615
*CONN
*P in[7] I
*I *164:A I *D sky130_fd_sc_hd__clkbuf_1
*CAP
1 in[7] 0.000487609
2 *164:A 0.000487609
3 *164:A out[7] 1.73961e-05
*RES
1 in[7] *164:A 25.5535 
*END

*D_NET *11 0.000760614
*CONN
*P out[0] O
*I *172:X O *D sky130_fd_sc_hd__buf_2
*CAP
1 out[0] 0.000311604
2 *172:X 0.000311604
3 out[0] out[1] 5.35867e-05
4 out[0] *165:A 2.89628e-05
5 *158:A out[0] 5.48561e-05
*RES
1 *172:X out[0] 20.5501 
*END

*D_NET *12 0.00101116
*CONN
*P out[1] O
*I *165:X O *D sky130_fd_sc_hd__buf_2
*CAP
1 out[1] 0.000478786
2 *165:X 0.000478786
3 out[0] out[1] 5.35867e-05
4 *158:A out[1] 0
*RES
1 *165:X out[1] 18.5553 
*END

*D_NET *13 0.00088949
*CONN
*P out[2] O
*I *166:X O *D sky130_fd_sc_hd__clkbuf_4
*CAP
1 out[2] 0.000444745
2 *166:X 0.000444745
3 out[2] out[3] 0
*RES
1 *166:X out[2] 22.6571 
*END

*D_NET *14 0.00095167
*CONN
*P out[3] O
*I *167:X O *D sky130_fd_sc_hd__clkbuf_4
*CAP
1 out[3] 0.000475835
2 *167:X 0.000475835
3 out[2] out[3] 0
4 *160:A out[3] 0
*RES
1 *167:X out[3] 22.7821 
*END

*D_NET *15 0.00086569
*CONN
*P out[4] O
*I *168:X O *D sky130_fd_sc_hd__buf_2
*CAP
1 out[4] 0.000432845
2 *168:X 0.000432845
3 *162:A out[4] 0
*RES
1 *168:X out[4] 21.8893 
*END

*D_NET *16 0.000899665
*CONN
*P out[5] O
*I *169:X O *D sky130_fd_sc_hd__buf_2
*CAP
1 out[5] 0.000449833
2 *169:X 0.000449833
3 *161:A out[5] 0
4 *162:A out[5] 0
*RES
1 *169:X out[5] 22.3 
*END

*D_NET *17 0.000760048
*CONN
*P out[6] O
*I *170:X O *D sky130_fd_sc_hd__buf_2
*CAP
1 out[6] 0.000352231
2 *170:X 0.000352231
3 *163:A out[6] 5.55866e-05
*RES
1 *170:X out[6] 18.4985 
*END

*D_NET *18 0.000908752
*CONN
*P out[7] O
*I *171:X O *D sky130_fd_sc_hd__buf_2
*CAP
1 out[7] 0.000428582
2 *171:X 0.000428582
3 *163:A out[7] 3.41918e-05
4 *164:A out[7] 1.73961e-05
*RES
1 *171:X out[7] 19.3378 
*END

*D_NET *19 0.00543232
*CONN
*I *155:B1_N I *D sky130_fd_sc_hd__a21boi_1
*I *142:B I *D sky130_fd_sc_hd__and2_1
*I *145:A3 I *D sky130_fd_sc_hd__o31a_1
*I *146:D I *D sky130_fd_sc_hd__or4_1
*I *141:B I *D sky130_fd_sc_hd__nor2_1
*I *140:X O *D sky130_fd_sc_hd__or4_2
*CAP
1 *155:B1_N 4.11003e-05
2 *142:B 0.000605671
3 *145:A3 1.69531e-05
4 *146:D 0
5 *141:B 0.000154581
6 *140:X 0.000203319
7 *19:16 0.000227419
8 *19:12 0.00014457
9 *19:10 0.00123413
10 *19:8 0.000818101
11 *141:B *141:A 0.000483802
12 *141:B *146:B 1.84865e-05
13 *141:B *40:12 9.55178e-05
14 *142:B *142:A 8.32064e-05
15 *142:B *144:A 0.000496542
16 *142:B *145:A2 5.33005e-05
17 *142:B *145:B1 2.23592e-05
18 *145:A3 *142:A 5.33005e-05
19 *145:A3 *145:B1 5.33005e-05
20 *19:8 *153:B 0.000315367
21 *19:12 *146:C 1.46689e-05
22 *19:12 *40:18 4.44838e-05
23 *19:16 *146:C 8.30385e-05
24 *19:16 *40:18 0.000169095
*RES
1 *140:X *19:8 16.8 
2 *19:8 *19:10 10.5982 
3 *19:10 *19:12 1.1875 
4 *19:12 *19:16 6.75 
5 *19:16 *141:B 13.9429 
6 *19:16 *146:D 9.3 
7 *19:12 *145:A3 14.3357 
8 *19:10 *142:B 23.4161 
9 *19:8 *155:B1_N 14.5321 
*END

*D_NET *20 0.00122654
*CONN
*I *143:A I *D sky130_fd_sc_hd__nor2_1
*I *144:B I *D sky130_fd_sc_hd__xnor2_1
*I *141:Y O *D sky130_fd_sc_hd__nor2_1
*CAP
1 *143:A 0.000311243
2 *144:B 0
3 *141:Y 0.000130605
4 *20:12 0.000441849
5 *143:A *142:A 7.57394e-05
6 *143:A *144:A 0.000140088
7 *20:12 *141:A 5.65955e-05
8 *20:12 *168:A 4.87841e-05
9 *20:12 *169:A 2.16394e-05
*RES
1 *141:Y *20:12 20.7821 
2 *20:12 *144:B 9.3 
3 *20:12 *143:A 23.9786 
*END

*D_NET *21 0.000342514
*CONN
*I *143:B I *D sky130_fd_sc_hd__nor2_1
*I *142:X O *D sky130_fd_sc_hd__and2_1
*CAP
1 *143:B 0.000131789
2 *142:X 0.000131789
3 *143:B *168:A 7.89362e-05
*RES
1 *142:X *143:B 30.0821 
*END

*D_NET *22 0.000359312
*CONN
*I *147:A_N I *D sky130_fd_sc_hd__and2b_1
*I *145:X O *D sky130_fd_sc_hd__o31a_1
*CAP
1 *147:A_N 0.000117276
2 *145:X 0.000117276
3 *147:A_N *39:40 5.49489e-05
4 *147:A_N *41:14 6.98107e-05
*RES
1 *145:X *147:A_N 20.7786 
*END

*D_NET *23 0.00168549
*CONN
*I *149:B I *D sky130_fd_sc_hd__xor2_1
*I *147:B I *D sky130_fd_sc_hd__and2b_1
*I *146:X O *D sky130_fd_sc_hd__or4_1
*CAP
1 *149:B 0.000390783
2 *147:B 6.80172e-05
3 *146:X 0.000275967
4 *23:10 0.000734768
5 *149:B *41:14 0.000147068
6 *23:10 *39:14 5.20669e-05
7 *23:10 *41:14 1.6815e-05
*RES
1 *146:X *23:10 17.8179 
2 *23:10 *147:B 14.7464 
3 *23:10 *149:B 21.55 
*END

*D_NET *24 0.000161333
*CONN
*I *148:A I *D sky130_fd_sc_hd__clkbuf_1
*I *147:X O *D sky130_fd_sc_hd__and2b_1
*CAP
1 *148:A 7.12999e-05
2 *147:X 7.12999e-05
3 *148:A *170:A 1.87331e-05
*RES
1 *147:X *148:A 19.975 
*END

*D_NET *25 0.00120562
*CONN
*I *153:A I *D sky130_fd_sc_hd__and2_1
*I *155:A2 I *D sky130_fd_sc_hd__a21boi_1
*I *151:X O *D sky130_fd_sc_hd__or3_1
*CAP
1 *153:A 7.85693e-05
2 *155:A2 0
3 *151:X 0.000228946
4 *25:12 0.000307515
5 *153:A *153:B 0.000138404
6 *153:A *155:A1 3.08664e-05
7 *153:A *167:A 5.46536e-05
8 *25:12 *140:A 0.000125373
9 *25:12 *140:C 1.59373e-05
10 *25:12 *140:D 5.65955e-05
11 *25:12 *153:B 0.000141734
12 *25:12 *155:A1 2.70242e-05
*RES
1 *151:X *25:12 14.3 
2 *25:12 *155:A2 9.3 
3 *25:12 *153:A 11.8893 
*END

*D_NET *26 0.00158115
*CONN
*I *153:B I *D sky130_fd_sc_hd__and2_1
*I *152:Y O *D sky130_fd_sc_hd__o21ai_1
*CAP
1 *153:B 0.000464527
2 *152:Y 0.000464527
3 *153:B *152:B1 5.65955e-05
4 *153:A *153:B 0.000138404
5 *19:8 *153:B 0.000315367
6 *25:12 *153:B 0.000141734
*RES
1 *152:Y *153:B 36.4929 
*END

*D_NET *27 0.000371805
*CONN
*I *154:A I *D sky130_fd_sc_hd__clkbuf_1
*I *153:X O *D sky130_fd_sc_hd__and2_1
*CAP
1 *154:A 0.00017675
2 *153:X 0.00017675
3 *154:A *166:A 1.83053e-05
*RES
1 *153:X *154:A 30.6 
*END

*D_NET *28 0.00290023
*CONN
*I *140:D I *D sky130_fd_sc_hd__or4_2
*I *152:A2 I *D sky130_fd_sc_hd__o21ai_1
*I *151:C I *D sky130_fd_sc_hd__or3_1
*I *156:A I *D sky130_fd_sc_hd__clkbuf_1
*I *150:B I *D sky130_fd_sc_hd__xor2_1
*I *157:X O *D sky130_fd_sc_hd__buf_1
*CAP
1 *140:D 7.66442e-05
2 *152:A2 0.000236283
3 *151:C 0
4 *156:A 0
5 *150:B 0
6 *157:X 0.000429642
7 *28:41 0.0003578
8 *28:32 9.38694e-05
9 *28:25 0.00022367
10 *28:14 0.000604315
11 *140:D *140:C 6.12452e-05
12 *140:D *151:A 5.49995e-05
13 *152:A2 *152:A1 0.000204971
14 *152:A2 *152:B1 6.94849e-05
15 *152:A2 *37:8 1.08847e-05
16 *152:A2 *37:10 2.30245e-05
17 *28:14 *36:12 0
18 *28:25 *150:A 9.83388e-05
19 *28:25 *36:23 5.85252e-05
20 *28:32 *140:C 1.32056e-05
21 *28:32 *36:23 7.09928e-05
22 *28:41 *140:C 2.12005e-05
23 *157:A *28:14 3.69047e-06
24 *158:A *28:14 0.000130847
25 *25:12 *140:D 5.65955e-05
*RES
1 *157:X *28:14 25.3893 
2 *28:14 *150:B 9.3 
3 *28:14 *28:25 3.75 
4 *28:25 *156:A 9.3 
5 *28:25 *28:32 1.35714 
6 *28:32 *151:C 9.3 
7 *28:32 *28:41 0.964286 
8 *28:41 *152:A2 23.1393 
9 *28:41 *140:D 11.0679 
*END

*D_NET *29 0.000443447
*CONN
*I *165:A I *D sky130_fd_sc_hd__buf_2
*I *150:X O *D sky130_fd_sc_hd__xor2_1
*CAP
1 *165:A 0.000186702
2 *150:X 0.000186702
3 *165:A *172:A 4.10796e-05
4 out[0] *165:A 2.89628e-05
*RES
1 *150:X *165:A 31.0286 
*END

*D_NET *30 0.000546263
*CONN
*I *166:A I *D sky130_fd_sc_hd__clkbuf_4
*I *154:X O *D sky130_fd_sc_hd__clkbuf_1
*CAP
1 *166:A 0.000263979
2 *154:X 0.000263979
3 *154:A *166:A 1.83053e-05
*RES
1 *154:X *166:A 31.4393 
*END

*D_NET *31 0.00067686
*CONN
*I *167:A I *D sky130_fd_sc_hd__clkbuf_4
*I *155:Y O *D sky130_fd_sc_hd__a21boi_1
*CAP
1 *167:A 0.000311103
2 *155:Y 0.000311103
3 *153:A *167:A 5.46536e-05
*RES
1 *155:Y *167:A 32.9214 
*END

*D_NET *32 0.000959601
*CONN
*I *168:A I *D sky130_fd_sc_hd__buf_2
*I *143:Y O *D sky130_fd_sc_hd__nor2_1
*CAP
1 *168:A 0.00041594
2 *143:Y 0.00041594
3 *143:B *168:A 7.89362e-05
4 *20:12 *168:A 4.87841e-05
*RES
1 *143:Y *168:A 34.9393 
*END

*D_NET *33 0.000904435
*CONN
*I *169:A I *D sky130_fd_sc_hd__buf_2
*I *144:Y O *D sky130_fd_sc_hd__xnor2_1
*CAP
1 *169:A 0.000400075
2 *144:Y 0.000400075
3 *169:A *40:12 7.85137e-05
4 *162:A *169:A 4.13122e-06
5 *20:12 *169:A 2.16394e-05
*RES
1 *144:Y *169:A 34.5643 
*END

*D_NET *34 0.000243487
*CONN
*I *170:A I *D sky130_fd_sc_hd__buf_2
*I *148:X O *D sky130_fd_sc_hd__clkbuf_1
*CAP
1 *170:A 0.000112377
2 *148:X 0.000112377
3 *148:A *170:A 1.87331e-05
*RES
1 *148:X *170:A 20.6893 
*END

*D_NET *35 0.000226973
*CONN
*I *171:A I *D sky130_fd_sc_hd__buf_2
*I *149:X O *D sky130_fd_sc_hd__xor2_1
*CAP
1 *171:A 0.000113487
2 *149:X 0.000113487
*RES
1 *149:X *171:A 20.3857 
*END

*D_NET *36 0.00230252
*CONN
*I *140:C I *D sky130_fd_sc_hd__or4_2
*I *151:B I *D sky130_fd_sc_hd__or3_1
*I *152:A1 I *D sky130_fd_sc_hd__o21ai_1
*I *150:A I *D sky130_fd_sc_hd__xor2_1
*I *158:X O *D sky130_fd_sc_hd__buf_1
*CAP
1 *140:C 0.000115788
2 *151:B 0
3 *152:A1 0.000136065
4 *150:A 3.96421e-05
5 *158:X 0.000333745
6 *36:25 0.000156653
7 *36:23 0.000292926
8 *36:12 0.000529936
9 *140:C *140:B 9.83442e-05
10 *140:C *151:A 5.49995e-05
11 *140:D *140:C 6.12452e-05
12 *152:A2 *152:A1 0.000204971
13 *158:A *36:12 0
14 *25:12 *140:C 1.59373e-05
15 *28:14 *36:12 0
16 *28:25 *150:A 9.83388e-05
17 *28:25 *36:23 5.85252e-05
18 *28:32 *140:C 1.32056e-05
19 *28:32 *36:23 7.09928e-05
20 *28:41 *140:C 2.12005e-05
*RES
1 *158:X *36:12 23.3179 
2 *36:12 *150:A 10.2464 
3 *36:12 *36:23 3.32143 
4 *36:23 *36:25 0.428571 
5 *36:25 *152:A1 21.1929 
6 *36:25 *151:B 9.3 
7 *36:23 *140:C 12.3179 
*END

*D_NET *37 0.0013702
*CONN
*I *151:A I *D sky130_fd_sc_hd__or3_1
*I *140:B I *D sky130_fd_sc_hd__or4_2
*I *152:B1 I *D sky130_fd_sc_hd__o21ai_1
*I *159:X O *D sky130_fd_sc_hd__clkbuf_1
*CAP
1 *151:A 1.17665e-05
2 *140:B 7.88812e-05
3 *152:B1 0.000149801
4 *159:X 0.000224629
5 *37:10 0.000264536
6 *37:8 0.00027225
7 *140:C *140:B 9.83442e-05
8 *140:C *151:A 5.49995e-05
9 *140:D *151:A 5.49995e-05
10 *152:A2 *152:B1 6.94849e-05
11 *152:A2 *37:8 1.08847e-05
12 *152:A2 *37:10 2.30245e-05
13 *153:B *152:B1 5.65955e-05
*RES
1 *159:X *37:8 17.8714 
2 *37:8 *37:10 0.732143 
3 *37:10 *152:B1 16.8179 
4 *37:10 *140:B 15.175 
5 *37:8 *151:A 14.3357 
*END

*D_NET *38 0.000900942
*CONN
*I *155:A1 I *D sky130_fd_sc_hd__a21boi_1
*I *140:A I *D sky130_fd_sc_hd__or4_2
*I *160:X O *D sky130_fd_sc_hd__clkbuf_1
*CAP
1 *155:A1 9.75442e-05
2 *140:A 6.08256e-05
3 *160:X 0.00020047
4 *38:10 0.000358839
5 *153:A *155:A1 3.08664e-05
6 *25:12 *140:A 0.000125373
7 *25:12 *155:A1 2.70242e-05
*RES
1 *160:X *38:10 21.7643 
2 *38:10 *140:A 10.9786 
3 *38:10 *155:A1 10.6571 
*END

*D_NET *39 0.00397686
*CONN
*I *145:A1 I *D sky130_fd_sc_hd__o31a_1
*I *142:A I *D sky130_fd_sc_hd__and2_1
*I *141:A I *D sky130_fd_sc_hd__nor2_1
*I *146:A I *D sky130_fd_sc_hd__or4_1
*I *161:X O *D sky130_fd_sc_hd__buf_1
*CAP
1 *145:A1 0
2 *142:A 0.000479012
3 *141:A 0.000408943
4 *146:A 0
5 *161:X 0.000260327
6 *39:40 0.000648733
7 *39:16 0.000445625
8 *39:14 0.00046673
9 *142:A *144:A 0.000105388
10 *142:A *145:B1 4.09233e-05
11 *39:40 *145:B1 5.49489e-05
12 *39:40 *146:C 8.54035e-05
13 *39:40 *41:14 8.42609e-05
14 *141:B *141:A 0.000483802
15 *142:B *142:A 8.32064e-05
16 *143:A *142:A 7.57394e-05
17 *145:A3 *142:A 5.33005e-05
18 *147:A_N *39:40 5.49489e-05
19 *161:A *39:14 3.69013e-05
20 *20:12 *141:A 5.65955e-05
21 *23:10 *39:14 5.20669e-05
*RES
1 *161:X *39:14 22.55 
2 *39:14 *39:16 0.535714 
3 *39:16 *146:A 9.3 
4 *39:16 *141:A 16.8536 
5 *39:14 *39:40 12.6071 
6 *39:40 *142:A 18.0857 
7 *39:40 *145:A1 9.3 
*END

*D_NET *40 0.00253102
*CONN
*I *146:B I *D sky130_fd_sc_hd__or4_1
*I *145:A2 I *D sky130_fd_sc_hd__o31a_1
*I *144:A I *D sky130_fd_sc_hd__xnor2_1
*I *162:X O *D sky130_fd_sc_hd__buf_1
*CAP
1 *146:B 3.42187e-05
2 *145:A2 1.49752e-05
3 *144:A 0.000129864
4 *162:X 0.00024165
5 *40:18 0.000341026
6 *40:12 0.000472055
7 *144:A *145:B1 5.49489e-05
8 *145:A2 *145:B1 4.08637e-05
9 *141:B *146:B 1.84865e-05
10 *141:B *40:12 9.55178e-05
11 *142:A *144:A 0.000105388
12 *142:B *144:A 0.000496542
13 *142:B *145:A2 5.33005e-05
14 *143:A *144:A 0.000140088
15 *169:A *40:12 7.85137e-05
16 *19:12 *40:18 4.44838e-05
17 *19:16 *40:18 0.000169095
*RES
1 *162:X *40:12 21.925 
2 *40:12 *40:18 12.7679 
3 *40:18 *144:A 14.675 
4 *40:18 *145:A2 9.83571 
5 *40:12 *146:B 9.83571 
*END

*D_NET *41 0.00273199
*CONN
*I *146:C I *D sky130_fd_sc_hd__or4_1
*I *145:B1 I *D sky130_fd_sc_hd__o31a_1
*I *163:X O *D sky130_fd_sc_hd__clkbuf_1
*CAP
1 *146:C 0.000111934
2 *145:B1 7.97464e-05
3 *163:X 0.000790112
4 *41:14 0.000981792
5 *142:A *145:B1 4.09233e-05
6 *142:B *145:B1 2.23592e-05
7 *144:A *145:B1 5.49489e-05
8 *145:A2 *145:B1 4.08637e-05
9 *145:A3 *145:B1 5.33005e-05
10 *147:A_N *41:14 6.98107e-05
11 *149:B *41:14 0.000147068
12 *19:12 *146:C 1.46689e-05
13 *19:16 *146:C 8.30385e-05
14 *23:10 *41:14 1.6815e-05
15 *39:40 *145:B1 5.49489e-05
16 *39:40 *146:C 8.54035e-05
17 *39:40 *41:14 8.42609e-05
*RES
1 *163:X *41:14 30.425 
2 *41:14 *145:B1 11.4964 
3 *41:14 *146:C 20.8536 
*END

*D_NET *42 0.000854709
*CONN
*I *149:A I *D sky130_fd_sc_hd__xor2_1
*I *164:X O *D sky130_fd_sc_hd__clkbuf_1
*CAP
1 *149:A 0.000427354
2 *164:X 0.000427354
*RES
1 *164:X *149:A 33.1893 
*END

*D_NET *43 0.00061659
*CONN
*I *172:A I *D sky130_fd_sc_hd__buf_2
*I *156:X O *D sky130_fd_sc_hd__clkbuf_1
*CAP
1 *172:A 0.000287755
2 *156:X 0.000287755
3 *165:A *172:A 4.10796e-05
*RES
1 *156:X *172:A 32.4571 
*END
