*SPEF "ieee 1481-1999"
*DESIGN "alu"
*DATE "17:12:37 Saturday May 03, 2025"
*VENDOR "The OpenROAD Project"
*PROGRAM "OpenROAD"
*VERSION "b16bda7e82721d10566ff7e2b68f1ff0be9f9e38"
*DESIGN_FLOW "NAME_SCOPE LOCAL" "PIN_CAP NONE"
*DIVIDER /
*DELIMITER :
*BUS_DELIMITER []
*T_UNIT 1 NS
*C_UNIT 1 PF
*R_UNIT 1 OHM
*L_UNIT 1 HENRY

*NAME_MAP
*1 A[0]
*2 A[1]
*3 A[2]
*4 A[3]
*5 A[4]
*6 A[5]
*7 A[6]
*8 A[7]
*9 B[0]
*10 B[1]
*11 B[2]
*12 B[3]
*13 B[4]
*14 B[5]
*15 B[6]
*16 B[7]
*19 opcode[0]
*20 opcode[1]
*21 opcode[2]
*22 out[0]
*23 out[1]
*24 out[2]
*25 out[3]
*26 out[4]
*27 out[5]
*28 out[6]
*29 out[7]
*30 _000_
*31 _001_
*32 _002_
*33 _003_
*34 _004_
*35 _005_
*36 _006_
*37 _007_
*38 _008_
*39 _009_
*40 _010_
*41 _011_
*42 _012_
*43 _013_
*44 _014_
*45 _015_
*46 _016_
*47 _017_
*48 _018_
*49 _019_
*50 _020_
*51 _021_
*52 _022_
*53 _023_
*54 _024_
*55 _025_
*56 _026_
*57 _027_
*58 _028_
*59 _029_
*60 _030_
*61 _031_
*62 _032_
*63 _033_
*64 _034_
*65 _035_
*66 _036_
*67 _037_
*68 _038_
*69 _039_
*70 _040_
*71 _041_
*72 _042_
*73 _043_
*74 _044_
*75 _045_
*76 _046_
*77 _047_
*78 _048_
*79 _049_
*80 _050_
*81 _051_
*82 _052_
*83 _053_
*84 _054_
*85 _055_
*86 _056_
*87 _057_
*88 _058_
*89 _059_
*90 _060_
*91 _061_
*92 _062_
*93 _063_
*94 _064_
*95 _065_
*96 _066_
*97 _067_
*98 _068_
*99 _069_
*100 _070_
*101 _071_
*102 _072_
*103 _073_
*104 _074_
*105 _075_
*106 _076_
*107 _077_
*108 _078_
*109 _079_
*110 _080_
*111 _081_
*112 _082_
*113 _083_
*114 _084_
*115 _085_
*116 _086_
*117 _087_
*118 _088_
*119 _089_
*120 _090_
*121 _091_
*122 _092_
*123 _093_
*124 _094_
*125 _095_
*126 _096_
*127 _097_
*128 _098_
*129 _099_
*130 _100_
*131 _101_
*132 _102_
*133 _103_
*134 _104_
*135 _105_
*136 _106_
*137 _107_
*138 _108_
*139 _109_
*140 _110_
*141 _111_
*142 _112_
*143 _113_
*144 _114_
*145 _115_
*146 _116_
*147 _117_
*148 _118_
*149 _119_
*150 _120_
*151 _121_
*152 _122_
*153 _123_
*154 _124_
*155 _125_
*156 _126_
*157 _127_
*158 _128_
*159 _129_
*160 _130_
*161 _131_
*162 _132_
*163 _133_
*164 _134_
*165 _135_
*166 _136_
*167 _137_
*168 _138_
*169 _139_
*170 _140_
*171 _141_
*172 _142_
*173 _143_
*174 _144_
*175 _145_
*176 _146_
*177 _147_
*178 _148_
*179 _149_
*180 _150_
*181 _151_
*182 _152_
*183 _153_
*184 _154_
*185 _155_
*186 _156_
*187 _157_
*188 _158_
*189 _159_
*190 _160_
*191 _161_
*192 _162_
*193 _163_
*194 _164_
*195 _165_
*196 _166_
*197 _167_
*198 _168_
*199 _169_
*200 _170_
*201 _171_
*202 _172_
*203 _173_
*204 _174_
*205 _175_
*206 _176_
*207 _177_
*208 _178_
*209 _179_
*210 _180_
*211 _181_
*212 _182_
*213 _183_
*214 _184_
*215 _185_
*216 _186_
*217 _187_
*218 _188_
*219 _189_
*220 _190_
*221 _191_
*222 _192_
*223 _193_
*224 _194_
*225 _195_
*226 _196_
*227 _197_
*228 _198_
*229 _199_
*230 _200_
*231 _201_
*232 _202_
*233 _203_
*234 _204_
*235 _205_
*236 _206_
*237 _207_
*238 _208_
*239 _209_
*240 _210_
*241 _211_
*242 _212_
*243 _213_
*244 _214_
*245 _215_
*246 _216_
*247 _217_
*248 _218_
*249 _219_
*250 _220_
*251 _221_
*252 _222_
*253 _223_
*254 _224_
*255 _225_
*256 _226_
*257 _227_
*258 _228_
*259 _229_
*260 _230_
*261 _231_
*262 _232_
*263 _233_
*264 _234_
*265 _235_
*266 _236_
*267 _237_
*268 _238_
*269 _239_
*270 _240_
*271 _241_
*272 _242_
*273 _243_
*274 _244_
*275 _245_
*276 _246_
*277 _247_
*278 net1
*279 net10
*280 net11
*281 net12
*282 net13
*283 net14
*284 net15
*285 net16
*286 net17
*287 net18
*288 net19
*289 net2
*290 net20
*291 net21
*292 net22
*293 net23
*294 net24
*295 net25
*296 net26
*297 net27
*298 net28
*299 net3
*300 net4
*301 net5
*302 net6
*303 net7
*304 net8
*305 net9
*306 FILLER_0_0_105
*307 FILLER_0_0_111
*308 FILLER_0_0_113
*309 FILLER_0_0_125
*310 FILLER_0_0_133
*311 FILLER_0_0_139
*312 FILLER_0_0_141
*313 FILLER_0_0_15
*314 FILLER_0_0_153
*315 FILLER_0_0_165
*316 FILLER_0_0_169
*317 FILLER_0_0_181
*318 FILLER_0_0_193
*319 FILLER_0_0_197
*320 FILLER_0_0_209
*321 FILLER_0_0_221
*322 FILLER_0_0_225
*323 FILLER_0_0_229
*324 FILLER_0_0_27
*325 FILLER_0_0_29
*326 FILLER_0_0_3
*327 FILLER_0_0_41
*328 FILLER_0_0_53
*329 FILLER_0_0_57
*330 FILLER_0_0_69
*331 FILLER_0_0_79
*332 FILLER_0_0_85
*333 FILLER_0_0_93
*334 FILLER_0_10_109
*335 FILLER_0_10_113
*336 FILLER_0_10_120
*337 FILLER_0_10_124
*338 FILLER_0_10_133
*339 FILLER_0_10_139
*340 FILLER_0_10_148
*341 FILLER_0_10_15
*342 FILLER_0_10_164
*343 FILLER_0_10_174
*344 FILLER_0_10_190
*345 FILLER_0_10_197
*346 FILLER_0_10_209
*347 FILLER_0_10_221
*348 FILLER_0_10_225
*349 FILLER_0_10_27
*350 FILLER_0_10_29
*351 FILLER_0_10_3
*352 FILLER_0_10_41
*353 FILLER_0_10_53
*354 FILLER_0_10_65
*355 FILLER_0_10_77
*356 FILLER_0_10_83
*357 FILLER_0_10_85
*358 FILLER_0_10_97
*359 FILLER_0_11_105
*360 FILLER_0_11_111
*361 FILLER_0_11_113
*362 FILLER_0_11_125
*363 FILLER_0_11_137
*364 FILLER_0_11_149
*365 FILLER_0_11_15
*366 FILLER_0_11_161
*367 FILLER_0_11_167
*368 FILLER_0_11_169
*369 FILLER_0_11_181
*370 FILLER_0_11_193
*371 FILLER_0_11_197
*372 FILLER_0_11_202
*373 FILLER_0_11_214
*374 FILLER_0_11_221
*375 FILLER_0_11_225
*376 FILLER_0_11_229
*377 FILLER_0_11_27
*378 FILLER_0_11_3
*379 FILLER_0_11_35
*380 FILLER_0_11_54
*381 FILLER_0_11_57
*382 FILLER_0_11_69
*383 FILLER_0_11_81
*384 FILLER_0_11_93
*385 FILLER_0_12_105
*386 FILLER_0_12_117
*387 FILLER_0_12_129
*388 FILLER_0_12_137
*389 FILLER_0_12_141
*390 FILLER_0_12_153
*391 FILLER_0_12_165
*392 FILLER_0_12_177
*393 FILLER_0_12_181
*394 FILLER_0_12_189
*395 FILLER_0_12_19
*396 FILLER_0_12_195
*397 FILLER_0_12_202
*398 FILLER_0_12_211
*399 FILLER_0_12_215
*400 FILLER_0_12_223
*401 FILLER_0_12_27
*402 FILLER_0_12_29
*403 FILLER_0_12_49
*404 FILLER_0_12_55
*405 FILLER_0_12_62
*406 FILLER_0_12_7
*407 FILLER_0_12_74
*408 FILLER_0_12_82
*409 FILLER_0_12_93
*410 FILLER_0_13_106
*411 FILLER_0_13_113
*412 FILLER_0_13_124
*413 FILLER_0_13_136
*414 FILLER_0_13_15
*415 FILLER_0_13_152
*416 FILLER_0_13_160
*417 FILLER_0_13_165
*418 FILLER_0_13_176
*419 FILLER_0_13_195
*420 FILLER_0_13_207
*421 FILLER_0_13_219
*422 FILLER_0_13_223
*423 FILLER_0_13_225
*424 FILLER_0_13_229
*425 FILLER_0_13_27
*426 FILLER_0_13_3
*427 FILLER_0_13_35
*428 FILLER_0_13_47
*429 FILLER_0_13_55
*430 FILLER_0_13_57
*431 FILLER_0_13_63
*432 FILLER_0_13_72
*433 FILLER_0_13_80
*434 FILLER_0_13_94
*435 FILLER_0_14_101
*436 FILLER_0_14_113
*437 FILLER_0_14_131
*438 FILLER_0_14_139
*439 FILLER_0_14_152
*440 FILLER_0_14_164
*441 FILLER_0_14_176
*442 FILLER_0_14_18
*443 FILLER_0_14_188
*444 FILLER_0_14_197
*445 FILLER_0_14_209
*446 FILLER_0_14_221
*447 FILLER_0_14_225
*448 FILLER_0_14_26
*449 FILLER_0_14_29
*450 FILLER_0_14_40
*451 FILLER_0_14_57
*452 FILLER_0_14_6
*453 FILLER_0_14_69
*454 FILLER_0_14_81
*455 FILLER_0_14_85
*456 FILLER_0_14_97
*457 FILLER_0_15_102
*458 FILLER_0_15_110
*459 FILLER_0_15_113
*460 FILLER_0_15_125
*461 FILLER_0_15_137
*462 FILLER_0_15_147
*463 FILLER_0_15_159
*464 FILLER_0_15_167
*465 FILLER_0_15_169
*466 FILLER_0_15_180
*467 FILLER_0_15_19
*468 FILLER_0_15_192
*469 FILLER_0_15_204
*470 FILLER_0_15_216
*471 FILLER_0_15_225
*472 FILLER_0_15_229
*473 FILLER_0_15_31
*474 FILLER_0_15_43
*475 FILLER_0_15_55
*476 FILLER_0_15_57
*477 FILLER_0_15_61
*478 FILLER_0_15_7
*479 FILLER_0_15_77
*480 FILLER_0_15_89
*481 FILLER_0_15_93
*482 FILLER_0_16_109
*483 FILLER_0_16_121
*484 FILLER_0_16_133
*485 FILLER_0_16_139
*486 FILLER_0_16_141
*487 FILLER_0_16_156
*488 FILLER_0_16_164
*489 FILLER_0_16_174
*490 FILLER_0_16_186
*491 FILLER_0_16_19
*492 FILLER_0_16_194
*493 FILLER_0_16_211
*494 FILLER_0_16_223
*495 FILLER_0_16_229
*496 FILLER_0_16_27
*497 FILLER_0_16_29
*498 FILLER_0_16_36
*499 FILLER_0_16_48
*500 FILLER_0_16_60
*501 FILLER_0_16_65
*502 FILLER_0_16_7
*503 FILLER_0_16_77
*504 FILLER_0_16_83
*505 FILLER_0_16_85
*506 FILLER_0_16_97
*507 FILLER_0_17_107
*508 FILLER_0_17_111
*509 FILLER_0_17_113
*510 FILLER_0_17_12
*511 FILLER_0_17_125
*512 FILLER_0_17_137
*513 FILLER_0_17_149
*514 FILLER_0_17_161
*515 FILLER_0_17_174
*516 FILLER_0_17_205
*517 FILLER_0_17_217
*518 FILLER_0_17_223
*519 FILLER_0_17_225
*520 FILLER_0_17_229
*521 FILLER_0_17_24
*522 FILLER_0_17_45
*523 FILLER_0_17_53
*524 FILLER_0_17_70
*525 FILLER_0_17_82
*526 FILLER_0_17_95
*527 FILLER_0_18_101
*528 FILLER_0_18_113
*529 FILLER_0_18_125
*530 FILLER_0_18_131
*531 FILLER_0_18_141
*532 FILLER_0_18_15
*533 FILLER_0_18_151
*534 FILLER_0_18_163
*535 FILLER_0_18_170
*536 FILLER_0_18_182
*537 FILLER_0_18_194
*538 FILLER_0_18_197
*539 FILLER_0_18_209
*540 FILLER_0_18_221
*541 FILLER_0_18_229
*542 FILLER_0_18_27
*543 FILLER_0_18_29
*544 FILLER_0_18_3
*545 FILLER_0_18_38
*546 FILLER_0_18_46
*547 FILLER_0_18_58
*548 FILLER_0_18_70
*549 FILLER_0_18_82
*550 FILLER_0_18_89
*551 FILLER_0_19_126
*552 FILLER_0_19_138
*553 FILLER_0_19_144
*554 FILLER_0_19_154
*555 FILLER_0_19_166
*556 FILLER_0_19_169
*557 FILLER_0_19_181
*558 FILLER_0_19_19
*559 FILLER_0_19_193
*560 FILLER_0_19_205
*561 FILLER_0_19_217
*562 FILLER_0_19_223
*563 FILLER_0_19_225
*564 FILLER_0_19_229
*565 FILLER_0_19_31
*566 FILLER_0_19_43
*567 FILLER_0_19_55
*568 FILLER_0_19_57
*569 FILLER_0_19_69
*570 FILLER_0_19_7
*571 FILLER_0_19_75
*572 FILLER_0_19_84
*573 FILLER_0_19_91
*574 FILLER_0_1_105
*575 FILLER_0_1_111
*576 FILLER_0_1_113
*577 FILLER_0_1_125
*578 FILLER_0_1_137
*579 FILLER_0_1_149
*580 FILLER_0_1_15
*581 FILLER_0_1_161
*582 FILLER_0_1_167
*583 FILLER_0_1_169
*584 FILLER_0_1_181
*585 FILLER_0_1_193
*586 FILLER_0_1_205
*587 FILLER_0_1_217
*588 FILLER_0_1_223
*589 FILLER_0_1_225
*590 FILLER_0_1_229
*591 FILLER_0_1_27
*592 FILLER_0_1_3
*593 FILLER_0_1_39
*594 FILLER_0_1_51
*595 FILLER_0_1_55
*596 FILLER_0_1_57
*597 FILLER_0_1_69
*598 FILLER_0_1_81
*599 FILLER_0_1_93
*600 FILLER_0_20_109
*601 FILLER_0_20_121
*602 FILLER_0_20_132
*603 FILLER_0_20_141
*604 FILLER_0_20_153
*605 FILLER_0_20_165
*606 FILLER_0_20_173
*607 FILLER_0_20_18
*608 FILLER_0_20_181
*609 FILLER_0_20_193
*610 FILLER_0_20_202
*611 FILLER_0_20_214
*612 FILLER_0_20_226
*613 FILLER_0_20_26
*614 FILLER_0_20_29
*615 FILLER_0_20_41
*616 FILLER_0_20_52
*617 FILLER_0_20_6
*618 FILLER_0_20_64
*619 FILLER_0_20_72
*620 FILLER_0_20_79
*621 FILLER_0_20_83
*622 FILLER_0_20_85
*623 FILLER_0_20_97
*624 FILLER_0_21_108
*625 FILLER_0_21_113
*626 FILLER_0_21_125
*627 FILLER_0_21_137
*628 FILLER_0_21_141
*629 FILLER_0_21_148
*630 FILLER_0_21_15
*631 FILLER_0_21_154
*632 FILLER_0_21_176
*633 FILLER_0_21_182
*634 FILLER_0_21_201
*635 FILLER_0_21_213
*636 FILLER_0_21_221
*637 FILLER_0_21_225
*638 FILLER_0_21_27
*639 FILLER_0_21_3
*640 FILLER_0_21_34
*641 FILLER_0_21_46
*642 FILLER_0_21_54
*643 FILLER_0_21_64
*644 FILLER_0_21_68
*645 FILLER_0_21_96
*646 FILLER_0_22_109
*647 FILLER_0_22_125
*648 FILLER_0_22_137
*649 FILLER_0_22_141
*650 FILLER_0_22_15
*651 FILLER_0_22_153
*652 FILLER_0_22_165
*653 FILLER_0_22_177
*654 FILLER_0_22_185
*655 FILLER_0_22_190
*656 FILLER_0_22_197
*657 FILLER_0_22_209
*658 FILLER_0_22_221
*659 FILLER_0_22_225
*660 FILLER_0_22_27
*661 FILLER_0_22_3
*662 FILLER_0_22_38
*663 FILLER_0_22_50
*664 FILLER_0_22_61
*665 FILLER_0_22_73
*666 FILLER_0_22_81
*667 FILLER_0_22_85
*668 FILLER_0_22_97
*669 FILLER_0_23_101
*670 FILLER_0_23_109
*671 FILLER_0_23_113
*672 FILLER_0_23_125
*673 FILLER_0_23_137
*674 FILLER_0_23_142
*675 FILLER_0_23_148
*676 FILLER_0_23_15
*677 FILLER_0_23_160
*678 FILLER_0_23_169
*679 FILLER_0_23_181
*680 FILLER_0_23_193
*681 FILLER_0_23_205
*682 FILLER_0_23_217
*683 FILLER_0_23_223
*684 FILLER_0_23_225
*685 FILLER_0_23_229
*686 FILLER_0_23_27
*687 FILLER_0_23_3
*688 FILLER_0_23_39
*689 FILLER_0_23_51
*690 FILLER_0_23_55
*691 FILLER_0_23_57
*692 FILLER_0_23_69
*693 FILLER_0_23_81
*694 FILLER_0_23_89
*695 FILLER_0_24_108
*696 FILLER_0_24_116
*697 FILLER_0_24_122
*698 FILLER_0_24_134
*699 FILLER_0_24_15
*700 FILLER_0_24_154
*701 FILLER_0_24_162
*702 FILLER_0_24_177
*703 FILLER_0_24_192
*704 FILLER_0_24_197
*705 FILLER_0_24_209
*706 FILLER_0_24_221
*707 FILLER_0_24_229
*708 FILLER_0_24_27
*709 FILLER_0_24_29
*710 FILLER_0_24_3
*711 FILLER_0_24_37
*712 FILLER_0_24_50
*713 FILLER_0_24_65
*714 FILLER_0_24_77
*715 FILLER_0_24_83
*716 FILLER_0_24_85
*717 FILLER_0_24_96
*718 FILLER_0_25_101
*719 FILLER_0_25_109
*720 FILLER_0_25_113
*721 FILLER_0_25_121
*722 FILLER_0_25_129
*723 FILLER_0_25_137
*724 FILLER_0_25_148
*725 FILLER_0_25_15
*726 FILLER_0_25_160
*727 FILLER_0_25_169
*728 FILLER_0_25_181
*729 FILLER_0_25_185
*730 FILLER_0_25_193
*731 FILLER_0_25_205
*732 FILLER_0_25_217
*733 FILLER_0_25_223
*734 FILLER_0_25_225
*735 FILLER_0_25_229
*736 FILLER_0_25_27
*737 FILLER_0_25_3
*738 FILLER_0_25_39
*739 FILLER_0_25_51
*740 FILLER_0_25_55
*741 FILLER_0_25_57
*742 FILLER_0_25_65
*743 FILLER_0_25_77
*744 FILLER_0_25_89
*745 FILLER_0_26_109
*746 FILLER_0_26_121
*747 FILLER_0_26_131
*748 FILLER_0_26_138
*749 FILLER_0_26_141
*750 FILLER_0_26_153
*751 FILLER_0_26_157
*752 FILLER_0_26_162
*753 FILLER_0_26_170
*754 FILLER_0_26_182
*755 FILLER_0_26_186
*756 FILLER_0_26_194
*757 FILLER_0_26_201
*758 FILLER_0_26_213
*759 FILLER_0_26_225
*760 FILLER_0_26_229
*761 FILLER_0_26_23
*762 FILLER_0_26_27
*763 FILLER_0_26_48
*764 FILLER_0_26_69
*765 FILLER_0_26_7
*766 FILLER_0_26_81
*767 FILLER_0_26_85
*768 FILLER_0_26_97
*769 FILLER_0_27_124
*770 FILLER_0_27_134
*771 FILLER_0_27_146
*772 FILLER_0_27_15
*773 FILLER_0_27_154
*774 FILLER_0_27_166
*775 FILLER_0_27_169
*776 FILLER_0_27_177
*777 FILLER_0_27_182
*778 FILLER_0_27_194
*779 FILLER_0_27_206
*780 FILLER_0_27_218
*781 FILLER_0_27_225
*782 FILLER_0_27_229
*783 FILLER_0_27_3
*784 FILLER_0_27_36
*785 FILLER_0_27_48
*786 FILLER_0_27_60
*787 FILLER_0_27_72
*788 FILLER_0_27_80
*789 FILLER_0_27_97
*790 FILLER_0_28_117
*791 FILLER_0_28_136
*792 FILLER_0_28_141
*793 FILLER_0_28_15
*794 FILLER_0_28_153
*795 FILLER_0_28_165
*796 FILLER_0_28_171
*797 FILLER_0_28_177
*798 FILLER_0_28_189
*799 FILLER_0_28_195
*800 FILLER_0_28_197
*801 FILLER_0_28_209
*802 FILLER_0_28_221
*803 FILLER_0_28_229
*804 FILLER_0_28_27
*805 FILLER_0_28_29
*806 FILLER_0_28_3
*807 FILLER_0_28_41
*808 FILLER_0_28_53
*809 FILLER_0_28_65
*810 FILLER_0_28_77
*811 FILLER_0_28_83
*812 FILLER_0_28_98
*813 FILLER_0_29_104
*814 FILLER_0_29_113
*815 FILLER_0_29_119
*816 FILLER_0_29_131
*817 FILLER_0_29_143
*818 FILLER_0_29_15
*819 FILLER_0_29_154
*820 FILLER_0_29_166
*821 FILLER_0_29_169
*822 FILLER_0_29_175
*823 FILLER_0_29_187
*824 FILLER_0_29_199
*825 FILLER_0_29_211
*826 FILLER_0_29_223
*827 FILLER_0_29_225
*828 FILLER_0_29_229
*829 FILLER_0_29_27
*830 FILLER_0_29_3
*831 FILLER_0_29_39
*832 FILLER_0_29_47
*833 FILLER_0_29_55
*834 FILLER_0_29_57
*835 FILLER_0_29_68
*836 FILLER_0_29_80
*837 FILLER_0_29_92
*838 FILLER_0_2_109
*839 FILLER_0_2_121
*840 FILLER_0_2_133
*841 FILLER_0_2_139
*842 FILLER_0_2_141
*843 FILLER_0_2_15
*844 FILLER_0_2_153
*845 FILLER_0_2_165
*846 FILLER_0_2_177
*847 FILLER_0_2_189
*848 FILLER_0_2_195
*849 FILLER_0_2_197
*850 FILLER_0_2_209
*851 FILLER_0_2_221
*852 FILLER_0_2_229
*853 FILLER_0_2_27
*854 FILLER_0_2_29
*855 FILLER_0_2_3
*856 FILLER_0_2_41
*857 FILLER_0_2_53
*858 FILLER_0_2_65
*859 FILLER_0_2_77
*860 FILLER_0_2_83
*861 FILLER_0_2_85
*862 FILLER_0_2_97
*863 FILLER_0_30_109
*864 FILLER_0_30_121
*865 FILLER_0_30_133
*866 FILLER_0_30_139
*867 FILLER_0_30_146
*868 FILLER_0_30_15
*869 FILLER_0_30_156
*870 FILLER_0_30_174
*871 FILLER_0_30_186
*872 FILLER_0_30_194
*873 FILLER_0_30_197
*874 FILLER_0_30_209
*875 FILLER_0_30_221
*876 FILLER_0_30_229
*877 FILLER_0_30_27
*878 FILLER_0_30_29
*879 FILLER_0_30_3
*880 FILLER_0_30_41
*881 FILLER_0_30_49
*882 FILLER_0_30_59
*883 FILLER_0_30_71
*884 FILLER_0_30_77
*885 FILLER_0_30_81
*886 FILLER_0_30_85
*887 FILLER_0_30_97
*888 FILLER_0_31_110
*889 FILLER_0_31_113
*890 FILLER_0_31_125
*891 FILLER_0_31_137
*892 FILLER_0_31_149
*893 FILLER_0_31_15
*894 FILLER_0_31_159
*895 FILLER_0_31_167
*896 FILLER_0_31_169
*897 FILLER_0_31_181
*898 FILLER_0_31_193
*899 FILLER_0_31_205
*900 FILLER_0_31_217
*901 FILLER_0_31_223
*902 FILLER_0_31_225
*903 FILLER_0_31_229
*904 FILLER_0_31_27
*905 FILLER_0_31_3
*906 FILLER_0_31_39
*907 FILLER_0_31_51
*908 FILLER_0_31_55
*909 FILLER_0_31_57
*910 FILLER_0_31_69
*911 FILLER_0_31_73
*912 FILLER_0_31_87
*913 FILLER_0_31_95
*914 FILLER_0_32_105
*915 FILLER_0_32_113
*916 FILLER_0_32_135
*917 FILLER_0_32_139
*918 FILLER_0_32_141
*919 FILLER_0_32_15
*920 FILLER_0_32_153
*921 FILLER_0_32_160
*922 FILLER_0_32_164
*923 FILLER_0_32_172
*924 FILLER_0_32_184
*925 FILLER_0_32_197
*926 FILLER_0_32_209
*927 FILLER_0_32_221
*928 FILLER_0_32_229
*929 FILLER_0_32_27
*930 FILLER_0_32_29
*931 FILLER_0_32_3
*932 FILLER_0_32_41
*933 FILLER_0_32_53
*934 FILLER_0_32_65
*935 FILLER_0_32_77
*936 FILLER_0_32_83
*937 FILLER_0_32_85
*938 FILLER_0_33_109
*939 FILLER_0_33_113
*940 FILLER_0_33_125
*941 FILLER_0_33_142
*942 FILLER_0_33_15
*943 FILLER_0_33_151
*944 FILLER_0_33_163
*945 FILLER_0_33_167
*946 FILLER_0_33_169
*947 FILLER_0_33_181
*948 FILLER_0_33_193
*949 FILLER_0_33_205
*950 FILLER_0_33_217
*951 FILLER_0_33_223
*952 FILLER_0_33_225
*953 FILLER_0_33_229
*954 FILLER_0_33_27
*955 FILLER_0_33_3
*956 FILLER_0_33_39
*957 FILLER_0_33_51
*958 FILLER_0_33_55
*959 FILLER_0_33_57
*960 FILLER_0_33_69
*961 FILLER_0_33_81
*962 FILLER_0_33_93
*963 FILLER_0_34_109
*964 FILLER_0_34_121
*965 FILLER_0_34_133
*966 FILLER_0_34_139
*967 FILLER_0_34_141
*968 FILLER_0_34_15
*969 FILLER_0_34_154
*970 FILLER_0_34_160
*971 FILLER_0_34_173
*972 FILLER_0_34_185
*973 FILLER_0_34_193
*974 FILLER_0_34_197
*975 FILLER_0_34_209
*976 FILLER_0_34_221
*977 FILLER_0_34_229
*978 FILLER_0_34_27
*979 FILLER_0_34_29
*980 FILLER_0_34_3
*981 FILLER_0_34_54
*982 FILLER_0_34_66
*983 FILLER_0_34_70
*984 FILLER_0_34_85
*985 FILLER_0_34_97
*986 FILLER_0_35_105
*987 FILLER_0_35_111
*988 FILLER_0_35_113
*989 FILLER_0_35_125
*990 FILLER_0_35_131
*991 FILLER_0_35_143
*992 FILLER_0_35_15
*993 FILLER_0_35_155
*994 FILLER_0_35_167
*995 FILLER_0_35_169
*996 FILLER_0_35_181
*997 FILLER_0_35_193
*998 FILLER_0_35_205
*999 FILLER_0_35_217
*1000 FILLER_0_35_223
*1001 FILLER_0_35_225
*1002 FILLER_0_35_229
*1003 FILLER_0_35_27
*1004 FILLER_0_35_3
*1005 FILLER_0_35_39
*1006 FILLER_0_35_51
*1007 FILLER_0_35_63
*1008 FILLER_0_35_75
*1009 FILLER_0_35_87
*1010 FILLER_0_36_109
*1011 FILLER_0_36_121
*1012 FILLER_0_36_130
*1013 FILLER_0_36_138
*1014 FILLER_0_36_141
*1015 FILLER_0_36_15
*1016 FILLER_0_36_177
*1017 FILLER_0_36_189
*1018 FILLER_0_36_195
*1019 FILLER_0_36_197
*1020 FILLER_0_36_209
*1021 FILLER_0_36_221
*1022 FILLER_0_36_229
*1023 FILLER_0_36_27
*1024 FILLER_0_36_29
*1025 FILLER_0_36_3
*1026 FILLER_0_36_41
*1027 FILLER_0_36_53
*1028 FILLER_0_36_65
*1029 FILLER_0_36_81
*1030 FILLER_0_36_85
*1031 FILLER_0_36_97
*1032 FILLER_0_37_113
*1033 FILLER_0_37_121
*1034 FILLER_0_37_132
*1035 FILLER_0_37_144
*1036 FILLER_0_37_15
*1037 FILLER_0_37_153
*1038 FILLER_0_37_161
*1039 FILLER_0_37_167
*1040 FILLER_0_37_169
*1041 FILLER_0_37_181
*1042 FILLER_0_37_193
*1043 FILLER_0_37_205
*1044 FILLER_0_37_217
*1045 FILLER_0_37_223
*1046 FILLER_0_37_225
*1047 FILLER_0_37_229
*1048 FILLER_0_37_27
*1049 FILLER_0_37_3
*1050 FILLER_0_37_39
*1051 FILLER_0_37_51
*1052 FILLER_0_37_55
*1053 FILLER_0_37_57
*1054 FILLER_0_37_69
*1055 FILLER_0_37_87
*1056 FILLER_0_37_99
*1057 FILLER_0_38_105
*1058 FILLER_0_38_111
*1059 FILLER_0_38_113
*1060 FILLER_0_38_119
*1061 FILLER_0_38_126
*1062 FILLER_0_38_135
*1063 FILLER_0_38_139
*1064 FILLER_0_38_15
*1065 FILLER_0_38_173
*1066 FILLER_0_38_185
*1067 FILLER_0_38_193
*1068 FILLER_0_38_197
*1069 FILLER_0_38_209
*1070 FILLER_0_38_221
*1071 FILLER_0_38_225
*1072 FILLER_0_38_229
*1073 FILLER_0_38_27
*1074 FILLER_0_38_29
*1075 FILLER_0_38_3
*1076 FILLER_0_38_41
*1077 FILLER_0_38_53
*1078 FILLER_0_38_57
*1079 FILLER_0_38_69
*1080 FILLER_0_38_81
*1081 FILLER_0_38_85
*1082 FILLER_0_38_97
*1083 FILLER_0_3_105
*1084 FILLER_0_3_111
*1085 FILLER_0_3_113
*1086 FILLER_0_3_125
*1087 FILLER_0_3_137
*1088 FILLER_0_3_149
*1089 FILLER_0_3_15
*1090 FILLER_0_3_161
*1091 FILLER_0_3_167
*1092 FILLER_0_3_169
*1093 FILLER_0_3_181
*1094 FILLER_0_3_193
*1095 FILLER_0_3_205
*1096 FILLER_0_3_217
*1097 FILLER_0_3_223
*1098 FILLER_0_3_225
*1099 FILLER_0_3_229
*1100 FILLER_0_3_27
*1101 FILLER_0_3_3
*1102 FILLER_0_3_39
*1103 FILLER_0_3_51
*1104 FILLER_0_3_55
*1105 FILLER_0_3_57
*1106 FILLER_0_3_69
*1107 FILLER_0_3_81
*1108 FILLER_0_3_93
*1109 FILLER_0_4_100
*1110 FILLER_0_4_112
*1111 FILLER_0_4_124
*1112 FILLER_0_4_128
*1113 FILLER_0_4_141
*1114 FILLER_0_4_15
*1115 FILLER_0_4_153
*1116 FILLER_0_4_165
*1117 FILLER_0_4_177
*1118 FILLER_0_4_189
*1119 FILLER_0_4_195
*1120 FILLER_0_4_197
*1121 FILLER_0_4_209
*1122 FILLER_0_4_221
*1123 FILLER_0_4_229
*1124 FILLER_0_4_27
*1125 FILLER_0_4_29
*1126 FILLER_0_4_3
*1127 FILLER_0_4_41
*1128 FILLER_0_4_53
*1129 FILLER_0_4_70
*1130 FILLER_0_4_82
*1131 FILLER_0_4_85
*1132 FILLER_0_5_109
*1133 FILLER_0_5_113
*1134 FILLER_0_5_136
*1135 FILLER_0_5_15
*1136 FILLER_0_5_161
*1137 FILLER_0_5_167
*1138 FILLER_0_5_169
*1139 FILLER_0_5_181
*1140 FILLER_0_5_185
*1141 FILLER_0_5_191
*1142 FILLER_0_5_203
*1143 FILLER_0_5_215
*1144 FILLER_0_5_223
*1145 FILLER_0_5_225
*1146 FILLER_0_5_229
*1147 FILLER_0_5_27
*1148 FILLER_0_5_3
*1149 FILLER_0_5_39
*1150 FILLER_0_5_43
*1151 FILLER_0_5_55
*1152 FILLER_0_5_57
*1153 FILLER_0_5_63
*1154 FILLER_0_5_77
*1155 FILLER_0_5_89
*1156 FILLER_0_6_109
*1157 FILLER_0_6_121
*1158 FILLER_0_6_132
*1159 FILLER_0_6_141
*1160 FILLER_0_6_149
*1161 FILLER_0_6_15
*1162 FILLER_0_6_164
*1163 FILLER_0_6_176
*1164 FILLER_0_6_184
*1165 FILLER_0_6_192
*1166 FILLER_0_6_203
*1167 FILLER_0_6_215
*1168 FILLER_0_6_227
*1169 FILLER_0_6_27
*1170 FILLER_0_6_29
*1171 FILLER_0_6_3
*1172 FILLER_0_6_56
*1173 FILLER_0_6_68
*1174 FILLER_0_6_79
*1175 FILLER_0_6_83
*1176 FILLER_0_6_85
*1177 FILLER_0_6_97
*1178 FILLER_0_7_108
*1179 FILLER_0_7_113
*1180 FILLER_0_7_125
*1181 FILLER_0_7_133
*1182 FILLER_0_7_145
*1183 FILLER_0_7_15
*1184 FILLER_0_7_157
*1185 FILLER_0_7_165
*1186 FILLER_0_7_176
*1187 FILLER_0_7_188
*1188 FILLER_0_7_199
*1189 FILLER_0_7_211
*1190 FILLER_0_7_223
*1191 FILLER_0_7_225
*1192 FILLER_0_7_229
*1193 FILLER_0_7_27
*1194 FILLER_0_7_3
*1195 FILLER_0_7_39
*1196 FILLER_0_7_51
*1197 FILLER_0_7_55
*1198 FILLER_0_7_57
*1199 FILLER_0_7_65
*1200 FILLER_0_7_72
*1201 FILLER_0_7_84
*1202 FILLER_0_7_96
*1203 FILLER_0_8_101
*1204 FILLER_0_8_113
*1205 FILLER_0_8_125
*1206 FILLER_0_8_137
*1207 FILLER_0_8_141
*1208 FILLER_0_8_149
*1209 FILLER_0_8_15
*1210 FILLER_0_8_156
*1211 FILLER_0_8_168
*1212 FILLER_0_8_180
*1213 FILLER_0_8_192
*1214 FILLER_0_8_197
*1215 FILLER_0_8_209
*1216 FILLER_0_8_221
*1217 FILLER_0_8_229
*1218 FILLER_0_8_27
*1219 FILLER_0_8_29
*1220 FILLER_0_8_3
*1221 FILLER_0_8_47
*1222 FILLER_0_8_59
*1223 FILLER_0_8_71
*1224 FILLER_0_8_83
*1225 FILLER_0_8_85
*1226 FILLER_0_9_110
*1227 FILLER_0_9_113
*1228 FILLER_0_9_124
*1229 FILLER_0_9_136
*1230 FILLER_0_9_144
*1231 FILLER_0_9_15
*1232 FILLER_0_9_156
*1233 FILLER_0_9_169
*1234 FILLER_0_9_181
*1235 FILLER_0_9_185
*1236 FILLER_0_9_193
*1237 FILLER_0_9_205
*1238 FILLER_0_9_217
*1239 FILLER_0_9_223
*1240 FILLER_0_9_225
*1241 FILLER_0_9_229
*1242 FILLER_0_9_27
*1243 FILLER_0_9_3
*1244 FILLER_0_9_39
*1245 FILLER_0_9_51
*1246 FILLER_0_9_73
*1247 FILLER_0_9_77
*1248 FILLER_0_9_84
*1249 FILLER_0_9_92
*1250 PHY_EDGE_ROW_0_Left_39
*1251 PHY_EDGE_ROW_0_Right_0
*1252 PHY_EDGE_ROW_10_Left_49
*1253 PHY_EDGE_ROW_10_Right_10
*1254 PHY_EDGE_ROW_11_Left_50
*1255 PHY_EDGE_ROW_11_Right_11
*1256 PHY_EDGE_ROW_12_Left_51
*1257 PHY_EDGE_ROW_12_Right_12
*1258 PHY_EDGE_ROW_13_Left_52
*1259 PHY_EDGE_ROW_13_Right_13
*1260 PHY_EDGE_ROW_14_Left_53
*1261 PHY_EDGE_ROW_14_Right_14
*1262 PHY_EDGE_ROW_15_Left_54
*1263 PHY_EDGE_ROW_15_Right_15
*1264 PHY_EDGE_ROW_16_Left_55
*1265 PHY_EDGE_ROW_16_Right_16
*1266 PHY_EDGE_ROW_17_Left_56
*1267 PHY_EDGE_ROW_17_Right_17
*1268 PHY_EDGE_ROW_18_Left_57
*1269 PHY_EDGE_ROW_18_Right_18
*1270 PHY_EDGE_ROW_19_Left_58
*1271 PHY_EDGE_ROW_19_Right_19
*1272 PHY_EDGE_ROW_1_Left_40
*1273 PHY_EDGE_ROW_1_Right_1
*1274 PHY_EDGE_ROW_20_Left_59
*1275 PHY_EDGE_ROW_20_Right_20
*1276 PHY_EDGE_ROW_21_Left_60
*1277 PHY_EDGE_ROW_21_Right_21
*1278 PHY_EDGE_ROW_22_Left_61
*1279 PHY_EDGE_ROW_22_Right_22
*1280 PHY_EDGE_ROW_23_Left_62
*1281 PHY_EDGE_ROW_23_Right_23
*1282 PHY_EDGE_ROW_24_Left_63
*1283 PHY_EDGE_ROW_24_Right_24
*1284 PHY_EDGE_ROW_25_Left_64
*1285 PHY_EDGE_ROW_25_Right_25
*1286 PHY_EDGE_ROW_26_Left_65
*1287 PHY_EDGE_ROW_26_Right_26
*1288 PHY_EDGE_ROW_27_Left_66
*1289 PHY_EDGE_ROW_27_Right_27
*1290 PHY_EDGE_ROW_28_Left_67
*1291 PHY_EDGE_ROW_28_Right_28
*1292 PHY_EDGE_ROW_29_Left_68
*1293 PHY_EDGE_ROW_29_Right_29
*1294 PHY_EDGE_ROW_2_Left_41
*1295 PHY_EDGE_ROW_2_Right_2
*1296 PHY_EDGE_ROW_30_Left_69
*1297 PHY_EDGE_ROW_30_Right_30
*1298 PHY_EDGE_ROW_31_Left_70
*1299 PHY_EDGE_ROW_31_Right_31
*1300 PHY_EDGE_ROW_32_Left_71
*1301 PHY_EDGE_ROW_32_Right_32
*1302 PHY_EDGE_ROW_33_Left_72
*1303 PHY_EDGE_ROW_33_Right_33
*1304 PHY_EDGE_ROW_34_Left_73
*1305 PHY_EDGE_ROW_34_Right_34
*1306 PHY_EDGE_ROW_35_Left_74
*1307 PHY_EDGE_ROW_35_Right_35
*1308 PHY_EDGE_ROW_36_Left_75
*1309 PHY_EDGE_ROW_36_Right_36
*1310 PHY_EDGE_ROW_37_Left_76
*1311 PHY_EDGE_ROW_37_Right_37
*1312 PHY_EDGE_ROW_38_Left_77
*1313 PHY_EDGE_ROW_38_Right_38
*1314 PHY_EDGE_ROW_3_Left_42
*1315 PHY_EDGE_ROW_3_Right_3
*1316 PHY_EDGE_ROW_4_Left_43
*1317 PHY_EDGE_ROW_4_Right_4
*1318 PHY_EDGE_ROW_5_Left_44
*1319 PHY_EDGE_ROW_5_Right_5
*1320 PHY_EDGE_ROW_6_Left_45
*1321 PHY_EDGE_ROW_6_Right_6
*1322 PHY_EDGE_ROW_7_Left_46
*1323 PHY_EDGE_ROW_7_Right_7
*1324 PHY_EDGE_ROW_8_Left_47
*1325 PHY_EDGE_ROW_8_Right_8
*1326 PHY_EDGE_ROW_9_Left_48
*1327 PHY_EDGE_ROW_9_Right_9
*1328 TAP_TAPCELL_ROW_0_78
*1329 TAP_TAPCELL_ROW_0_79
*1330 TAP_TAPCELL_ROW_0_80
*1331 TAP_TAPCELL_ROW_0_81
*1332 TAP_TAPCELL_ROW_0_82
*1333 TAP_TAPCELL_ROW_0_83
*1334 TAP_TAPCELL_ROW_0_84
*1335 TAP_TAPCELL_ROW_0_85
*1336 TAP_TAPCELL_ROW_10_122
*1337 TAP_TAPCELL_ROW_10_123
*1338 TAP_TAPCELL_ROW_10_124
*1339 TAP_TAPCELL_ROW_10_125
*1340 TAP_TAPCELL_ROW_11_126
*1341 TAP_TAPCELL_ROW_11_127
*1342 TAP_TAPCELL_ROW_11_128
*1343 TAP_TAPCELL_ROW_11_129
*1344 TAP_TAPCELL_ROW_12_130
*1345 TAP_TAPCELL_ROW_12_131
*1346 TAP_TAPCELL_ROW_12_132
*1347 TAP_TAPCELL_ROW_12_133
*1348 TAP_TAPCELL_ROW_13_134
*1349 TAP_TAPCELL_ROW_13_135
*1350 TAP_TAPCELL_ROW_13_136
*1351 TAP_TAPCELL_ROW_13_137
*1352 TAP_TAPCELL_ROW_14_138
*1353 TAP_TAPCELL_ROW_14_139
*1354 TAP_TAPCELL_ROW_14_140
*1355 TAP_TAPCELL_ROW_14_141
*1356 TAP_TAPCELL_ROW_15_142
*1357 TAP_TAPCELL_ROW_15_143
*1358 TAP_TAPCELL_ROW_15_144
*1359 TAP_TAPCELL_ROW_15_145
*1360 TAP_TAPCELL_ROW_16_146
*1361 TAP_TAPCELL_ROW_16_147
*1362 TAP_TAPCELL_ROW_16_148
*1363 TAP_TAPCELL_ROW_16_149
*1364 TAP_TAPCELL_ROW_17_150
*1365 TAP_TAPCELL_ROW_17_151
*1366 TAP_TAPCELL_ROW_17_152
*1367 TAP_TAPCELL_ROW_17_153
*1368 TAP_TAPCELL_ROW_18_154
*1369 TAP_TAPCELL_ROW_18_155
*1370 TAP_TAPCELL_ROW_18_156
*1371 TAP_TAPCELL_ROW_18_157
*1372 TAP_TAPCELL_ROW_19_158
*1373 TAP_TAPCELL_ROW_19_159
*1374 TAP_TAPCELL_ROW_19_160
*1375 TAP_TAPCELL_ROW_19_161
*1376 TAP_TAPCELL_ROW_1_86
*1377 TAP_TAPCELL_ROW_1_87
*1378 TAP_TAPCELL_ROW_1_88
*1379 TAP_TAPCELL_ROW_1_89
*1380 TAP_TAPCELL_ROW_20_162
*1381 TAP_TAPCELL_ROW_20_163
*1382 TAP_TAPCELL_ROW_20_164
*1383 TAP_TAPCELL_ROW_20_165
*1384 TAP_TAPCELL_ROW_21_166
*1385 TAP_TAPCELL_ROW_21_167
*1386 TAP_TAPCELL_ROW_21_168
*1387 TAP_TAPCELL_ROW_21_169
*1388 TAP_TAPCELL_ROW_22_170
*1389 TAP_TAPCELL_ROW_22_171
*1390 TAP_TAPCELL_ROW_22_172
*1391 TAP_TAPCELL_ROW_22_173
*1392 TAP_TAPCELL_ROW_23_174
*1393 TAP_TAPCELL_ROW_23_175
*1394 TAP_TAPCELL_ROW_23_176
*1395 TAP_TAPCELL_ROW_23_177
*1396 TAP_TAPCELL_ROW_24_178
*1397 TAP_TAPCELL_ROW_24_179
*1398 TAP_TAPCELL_ROW_24_180
*1399 TAP_TAPCELL_ROW_24_181
*1400 TAP_TAPCELL_ROW_25_182
*1401 TAP_TAPCELL_ROW_25_183
*1402 TAP_TAPCELL_ROW_25_184
*1403 TAP_TAPCELL_ROW_25_185
*1404 TAP_TAPCELL_ROW_26_186
*1405 TAP_TAPCELL_ROW_26_187
*1406 TAP_TAPCELL_ROW_26_188
*1407 TAP_TAPCELL_ROW_26_189
*1408 TAP_TAPCELL_ROW_27_190
*1409 TAP_TAPCELL_ROW_27_191
*1410 TAP_TAPCELL_ROW_27_192
*1411 TAP_TAPCELL_ROW_27_193
*1412 TAP_TAPCELL_ROW_28_194
*1413 TAP_TAPCELL_ROW_28_195
*1414 TAP_TAPCELL_ROW_28_196
*1415 TAP_TAPCELL_ROW_28_197
*1416 TAP_TAPCELL_ROW_29_198
*1417 TAP_TAPCELL_ROW_29_199
*1418 TAP_TAPCELL_ROW_29_200
*1419 TAP_TAPCELL_ROW_29_201
*1420 TAP_TAPCELL_ROW_2_90
*1421 TAP_TAPCELL_ROW_2_91
*1422 TAP_TAPCELL_ROW_2_92
*1423 TAP_TAPCELL_ROW_2_93
*1424 TAP_TAPCELL_ROW_30_202
*1425 TAP_TAPCELL_ROW_30_203
*1426 TAP_TAPCELL_ROW_30_204
*1427 TAP_TAPCELL_ROW_30_205
*1428 TAP_TAPCELL_ROW_31_206
*1429 TAP_TAPCELL_ROW_31_207
*1430 TAP_TAPCELL_ROW_31_208
*1431 TAP_TAPCELL_ROW_31_209
*1432 TAP_TAPCELL_ROW_32_210
*1433 TAP_TAPCELL_ROW_32_211
*1434 TAP_TAPCELL_ROW_32_212
*1435 TAP_TAPCELL_ROW_32_213
*1436 TAP_TAPCELL_ROW_33_214
*1437 TAP_TAPCELL_ROW_33_215
*1438 TAP_TAPCELL_ROW_33_216
*1439 TAP_TAPCELL_ROW_33_217
*1440 TAP_TAPCELL_ROW_34_218
*1441 TAP_TAPCELL_ROW_34_219
*1442 TAP_TAPCELL_ROW_34_220
*1443 TAP_TAPCELL_ROW_34_221
*1444 TAP_TAPCELL_ROW_35_222
*1445 TAP_TAPCELL_ROW_35_223
*1446 TAP_TAPCELL_ROW_35_224
*1447 TAP_TAPCELL_ROW_35_225
*1448 TAP_TAPCELL_ROW_36_226
*1449 TAP_TAPCELL_ROW_36_227
*1450 TAP_TAPCELL_ROW_36_228
*1451 TAP_TAPCELL_ROW_36_229
*1452 TAP_TAPCELL_ROW_37_230
*1453 TAP_TAPCELL_ROW_37_231
*1454 TAP_TAPCELL_ROW_37_232
*1455 TAP_TAPCELL_ROW_37_233
*1456 TAP_TAPCELL_ROW_38_234
*1457 TAP_TAPCELL_ROW_38_235
*1458 TAP_TAPCELL_ROW_38_236
*1459 TAP_TAPCELL_ROW_38_237
*1460 TAP_TAPCELL_ROW_38_238
*1461 TAP_TAPCELL_ROW_38_239
*1462 TAP_TAPCELL_ROW_38_240
*1463 TAP_TAPCELL_ROW_38_241
*1464 TAP_TAPCELL_ROW_3_94
*1465 TAP_TAPCELL_ROW_3_95
*1466 TAP_TAPCELL_ROW_3_96
*1467 TAP_TAPCELL_ROW_3_97
*1468 TAP_TAPCELL_ROW_4_100
*1469 TAP_TAPCELL_ROW_4_101
*1470 TAP_TAPCELL_ROW_4_98
*1471 TAP_TAPCELL_ROW_4_99
*1472 TAP_TAPCELL_ROW_5_102
*1473 TAP_TAPCELL_ROW_5_103
*1474 TAP_TAPCELL_ROW_5_104
*1475 TAP_TAPCELL_ROW_5_105
*1476 TAP_TAPCELL_ROW_6_106
*1477 TAP_TAPCELL_ROW_6_107
*1478 TAP_TAPCELL_ROW_6_108
*1479 TAP_TAPCELL_ROW_6_109
*1480 TAP_TAPCELL_ROW_7_110
*1481 TAP_TAPCELL_ROW_7_111
*1482 TAP_TAPCELL_ROW_7_112
*1483 TAP_TAPCELL_ROW_7_113
*1484 TAP_TAPCELL_ROW_8_114
*1485 TAP_TAPCELL_ROW_8_115
*1486 TAP_TAPCELL_ROW_8_116
*1487 TAP_TAPCELL_ROW_8_117
*1488 TAP_TAPCELL_ROW_9_118
*1489 TAP_TAPCELL_ROW_9_119
*1490 TAP_TAPCELL_ROW_9_120
*1491 TAP_TAPCELL_ROW_9_121