*SPEF "ieee 1481-1999"
*DESIGN "ZeroToFiveCounter"
*DATE "18:54:54 Saturday May 24, 2025"
*VENDOR "The OpenROAD Project"
*PROGRAM "OpenROAD"
*VERSION "b16bda7e82721d10566ff7e2b68f1ff0be9f9e38"
*DESIGN_FLOW "NAME_SCOPE LOCAL" "PIN_CAP NONE"
*DIVIDER /
*DELIMITER :
*BUS_DELIMITER []
*T_UNIT 1 NS
*C_UNIT 1 PF
*R_UNIT 1 OHM
*L_UNIT 1 HENRY

*NAME_MAP
*3 clk
*4 rst
*5 seg[0]
*6 seg[1]
*7 seg[2]
*8 seg[3]
*9 seg[4]
*10 seg[5]
*11 seg[6]
*12 _000_
*13 _001_
*14 _002_
*15 _003_
*16 _004_
*17 _005_
*18 _006_
*19 _007_
*20 _008_
*21 _009_
*22 _010_
*23 _011_
*24 _012_
*25 _013_
*26 _014_
*27 _015_
*28 _016_
*29 _017_
*30 _018_
*31 _020_
*32 _021_
*33 _022_
*34 _023_
*35 _024_
*36 _025_
*37 _026_
*38 _027_
*39 _028_
*40 _029_
*41 _030_
*42 _031_
*43 _032_
*44 _033_
*45 _034_
*46 _035_
*47 _036_
*48 _037_
*49 _038_
*50 _039_
*51 _040_
*52 _041_
*53 _042_
*54 _043_
*55 _044_
*56 _045_
*57 _046_
*58 _047_
*59 _048_
*60 _049_
*61 _050_
*62 _051_
*63 _052_
*64 _053_
*65 _054_
*66 _055_
*67 _056_
*68 _057_
*69 _058_
*70 _059_
*71 _060_
*72 _061_
*73 _062_
*74 _063_
*75 _064_
*76 _065_
*77 _066_
*78 _067_
*79 _068_
*80 _069_
*81 _070_
*82 _071_
*83 _072_
*84 _073_
*85 _074_
*86 _075_
*87 _076_
*88 _077_
*89 _078_
*90 _079_
*91 _080_
*92 _081_
*93 _082_
*94 _083_
*95 _084_
*96 _085_
*97 _086_
*98 _087_
*99 _088_
*100 _089_
*101 _090_
*102 _091_
*103 _092_
*104 _093_
*105 _094_
*106 _095_
*107 _096_
*108 _097_
*109 _098_
*110 _099_
*111 _100_
*112 _101_
*113 _102_
*114 _103_
*115 _104_
*116 _105_
*117 _106_
*118 _107_
*119 _108_
*120 _109_
*121 _110_
*122 _111_
*123 _112_
*124 _113_
*125 _114_
*126 _115_
*127 _116_
*128 _117_
*129 _118_
*130 _119_
*131 _120_
*132 _121_
*133 _122_
*134 _123_
*135 _124_
*136 _125_
*137 _126_
*138 _127_
*139 _128_
*140 _129_
*141 _130_
*142 _131_
*143 _132_
*144 _133_
*145 _134_
*146 _135_
*147 _136_
*148 _137_
*149 _138_
*150 _139_
*151 _140_
*152 _141_
*153 _142_
*154 _143_
*155 _144_
*156 _145_
*157 _146_
*158 _147_
*159 _148_
*160 _149_
*161 _150_
*162 _151_
*163 _152_
*164 _153_
*165 _154_
*166 _155_
*167 _156_
*168 _157_
*169 _158_
*170 _159_
*171 _160_
*172 _161_
*173 _162_
*174 _163_
*175 _164_
*176 _165_
*177 _166_
*178 clknet_0_clk
*179 clknet_2_0__leaf_clk
*180 clknet_2_1__leaf_clk
*181 clknet_2_2__leaf_clk
*182 clknet_2_3__leaf_clk
*183 count\[0\]
*184 count\[10\]
*185 count\[11\]
*186 count\[12\]
*187 count\[13\]
*188 count\[14\]
*189 count\[15\]
*190 count\[16\]
*191 count\[17\]
*192 count\[18\]
*193 count\[19\]
*194 count\[1\]
*195 count\[20\]
*196 count\[21\]
*197 count\[22\]
*198 count\[23\]
*199 count\[24\]
*200 count\[25\]
*201 count\[26\]
*202 count\[27\]
*203 count\[2\]
*204 count\[3\]
*205 count\[4\]
*206 count\[5\]
*207 count\[6\]
*208 count\[7\]
*209 count\[8\]
*210 count\[9\]
*211 net1
*212 net10
*213 net11
*214 net12
*215 net13
*216 net14
*217 net2
*218 net3
*219 net4
*220 net5
*221 net6
*222 net7
*223 net8
*224 net9
*225 num\[0\]
*226 num\[1\]
*227 num\[2\]
*228 FILLER_0_0_102
*229 FILLER_0_0_110
*230 FILLER_0_0_113
*231 FILLER_0_0_125
*232 FILLER_0_0_15
*233 FILLER_0_0_27
*234 FILLER_0_0_29
*235 FILLER_0_0_3
*236 FILLER_0_0_41
*237 FILLER_0_0_53
*238 FILLER_0_0_57
*239 FILLER_0_0_69
*240 FILLER_0_0_81
*241 FILLER_0_0_85
*242 FILLER_0_0_90
*243 FILLER_0_10_110
*244 FILLER_0_10_131
*245 FILLER_0_10_18
*246 FILLER_0_10_26
*247 FILLER_0_10_29
*248 FILLER_0_10_38
*249 FILLER_0_10_45
*250 FILLER_0_10_53
*251 FILLER_0_10_6
*252 FILLER_0_10_74
*253 FILLER_0_10_82
*254 FILLER_0_10_90
*255 FILLER_0_11_124
*256 FILLER_0_11_132
*257 FILLER_0_11_15
*258 FILLER_0_11_23
*259 FILLER_0_11_3
*260 FILLER_0_11_57
*261 FILLER_0_11_79
*262 FILLER_0_11_83
*263 FILLER_0_11_87
*264 FILLER_0_11_99
*265 FILLER_0_12_104
*266 FILLER_0_12_11
*267 FILLER_0_12_116
*268 FILLER_0_12_128
*269 FILLER_0_12_132
*270 FILLER_0_12_29
*271 FILLER_0_12_3
*272 FILLER_0_12_36
*273 FILLER_0_12_44
*274 FILLER_0_12_62
*275 FILLER_0_12_74
*276 FILLER_0_12_92
*277 FILLER_0_13_102
*278 FILLER_0_13_113
*279 FILLER_0_13_128
*280 FILLER_0_13_3
*281 FILLER_0_13_35
*282 FILLER_0_13_48
*283 FILLER_0_13_68
*284 FILLER_0_14_29
*285 FILLER_0_14_3
*286 FILLER_0_14_44
*287 FILLER_0_14_65
*288 FILLER_0_14_78
*289 FILLER_0_15_102
*290 FILLER_0_15_106
*291 FILLER_0_15_111
*292 FILLER_0_15_24
*293 FILLER_0_15_28
*294 FILLER_0_15_3
*295 FILLER_0_15_47
*296 FILLER_0_15_57
*297 FILLER_0_15_63
*298 FILLER_0_15_90
*299 FILLER_0_16_109
*300 FILLER_0_16_15
*301 FILLER_0_16_26
*302 FILLER_0_16_3
*303 FILLER_0_16_52
*304 FILLER_0_16_64
*305 FILLER_0_16_76
*306 FILLER_0_16_83
*307 FILLER_0_16_85
*308 FILLER_0_16_97
*309 FILLER_0_17_109
*310 FILLER_0_17_113
*311 FILLER_0_17_15
*312 FILLER_0_17_27
*313 FILLER_0_17_3
*314 FILLER_0_17_52
*315 FILLER_0_17_57
*316 FILLER_0_17_69
*317 FILLER_0_17_97
*318 FILLER_0_18_103
*319 FILLER_0_18_125
*320 FILLER_0_18_15
*321 FILLER_0_18_27
*322 FILLER_0_18_29
*323 FILLER_0_18_3
*324 FILLER_0_18_36
*325 FILLER_0_18_46
*326 FILLER_0_18_90
*327 FILLER_0_18_98
*328 FILLER_0_19_116
*329 FILLER_0_19_127
*330 FILLER_0_19_15
*331 FILLER_0_19_3
*332 FILLER_0_19_55
*333 FILLER_0_19_90
*334 FILLER_0_1_101
*335 FILLER_0_1_109
*336 FILLER_0_1_113
*337 FILLER_0_1_125
*338 FILLER_0_1_15
*339 FILLER_0_1_3
*340 FILLER_0_1_38
*341 FILLER_0_1_43
*342 FILLER_0_1_55
*343 FILLER_0_1_60
*344 FILLER_0_1_67
*345 FILLER_0_1_75
*346 FILLER_0_20_124
*347 FILLER_0_20_128
*348 FILLER_0_20_15
*349 FILLER_0_20_29
*350 FILLER_0_20_3
*351 FILLER_0_20_56
*352 FILLER_0_20_60
*353 FILLER_0_20_88
*354 FILLER_0_21_102
*355 FILLER_0_21_113
*356 FILLER_0_21_125
*357 FILLER_0_21_15
*358 FILLER_0_21_23
*359 FILLER_0_21_3
*360 FILLER_0_21_37
*361 FILLER_0_21_44
*362 FILLER_0_21_57
*363 FILLER_0_21_82
*364 FILLER_0_21_94
*365 FILLER_0_22_109
*366 FILLER_0_22_113
*367 FILLER_0_22_125
*368 FILLER_0_22_15
*369 FILLER_0_22_27
*370 FILLER_0_22_29
*371 FILLER_0_22_3
*372 FILLER_0_22_41
*373 FILLER_0_22_53
*374 FILLER_0_22_57
*375 FILLER_0_22_69
*376 FILLER_0_22_81
*377 FILLER_0_22_85
*378 FILLER_0_22_97
*379 FILLER_0_2_105
*380 FILLER_0_2_114
*381 FILLER_0_2_118
*382 FILLER_0_2_122
*383 FILLER_0_2_130
*384 FILLER_0_2_15
*385 FILLER_0_2_21
*386 FILLER_0_2_3
*387 FILLER_0_2_49
*388 FILLER_0_2_71
*389 FILLER_0_2_77
*390 FILLER_0_3_101
*391 FILLER_0_3_15
*392 FILLER_0_3_23
*393 FILLER_0_3_3
*394 FILLER_0_3_42
*395 FILLER_0_3_48
*396 FILLER_0_3_77
*397 FILLER_0_4_101
*398 FILLER_0_4_113
*399 FILLER_0_4_125
*400 FILLER_0_4_27
*401 FILLER_0_4_29
*402 FILLER_0_4_3
*403 FILLER_0_4_39
*404 FILLER_0_4_77
*405 FILLER_0_4_83
*406 FILLER_0_4_85
*407 FILLER_0_5_109
*408 FILLER_0_5_11
*409 FILLER_0_5_113
*410 FILLER_0_5_119
*411 FILLER_0_5_123
*412 FILLER_0_5_131
*413 FILLER_0_5_16
*414 FILLER_0_5_28
*415 FILLER_0_5_3
*416 FILLER_0_5_36
*417 FILLER_0_5_66
*418 FILLER_0_5_78
*419 FILLER_0_5_82
*420 FILLER_0_6_105
*421 FILLER_0_6_130
*422 FILLER_0_6_15
*423 FILLER_0_6_19
*424 FILLER_0_6_27
*425 FILLER_0_6_3
*426 FILLER_0_6_59
*427 FILLER_0_6_71
*428 FILLER_0_7_118
*429 FILLER_0_7_130
*430 FILLER_0_7_33
*431 FILLER_0_7_45
*432 FILLER_0_7_55
*433 FILLER_0_7_62
*434 FILLER_0_7_74
*435 FILLER_0_7_86
*436 FILLER_0_7_98
*437 FILLER_0_8_103
*438 FILLER_0_8_115
*439 FILLER_0_8_124
*440 FILLER_0_8_132
*441 FILLER_0_8_26
*442 FILLER_0_8_29
*443 FILLER_0_8_3
*444 FILLER_0_8_42
*445 FILLER_0_8_46
*446 FILLER_0_8_81
*447 FILLER_0_8_91
*448 FILLER_0_9_111
*449 FILLER_0_9_3
*450 FILLER_0_9_41
*451 FILLER_0_9_53
*452 FILLER_0_9_57
*453 FILLER_0_9_70
*454 FILLER_0_9_97
*455 PHY_EDGE_ROW_0_Left_23
*456 PHY_EDGE_ROW_0_Right_0
*457 PHY_EDGE_ROW_10_Left_33
*458 PHY_EDGE_ROW_10_Right_10
*459 PHY_EDGE_ROW_11_Left_34
*460 PHY_EDGE_ROW_11_Right_11
*461 PHY_EDGE_ROW_12_Left_35
*462 PHY_EDGE_ROW_12_Right_12
*463 PHY_EDGE_ROW_13_Left_36
*464 PHY_EDGE_ROW_13_Right_13
*465 PHY_EDGE_ROW_14_Left_37
*466 PHY_EDGE_ROW_14_Right_14
*467 PHY_EDGE_ROW_15_Left_38
*468 PHY_EDGE_ROW_15_Right_15
*469 PHY_EDGE_ROW_16_Left_39
*470 PHY_EDGE_ROW_16_Right_16
*471 PHY_EDGE_ROW_17_Left_40
*472 PHY_EDGE_ROW_17_Right_17
*473 PHY_EDGE_ROW_18_Left_41
*474 PHY_EDGE_ROW_18_Right_18
*475 PHY_EDGE_ROW_19_Left_42
*476 PHY_EDGE_ROW_19_Right_19
*477 PHY_EDGE_ROW_1_Left_24
*478 PHY_EDGE_ROW_1_Right_1
*479 PHY_EDGE_ROW_20_Left_43
*480 PHY_EDGE_ROW_20_Right_20
*481 PHY_EDGE_ROW_21_Left_44
*482 PHY_EDGE_ROW_21_Right_21
*483 PHY_EDGE_ROW_22_Left_45
*484 PHY_EDGE_ROW_22_Right_22
*485 PHY_EDGE_ROW_2_Left_25
*486 PHY_EDGE_ROW_2_Right_2
*487 PHY_EDGE_ROW_3_Left_26
*488 PHY_EDGE_ROW_3_Right_3
*489 PHY_EDGE_ROW_4_Left_27
*490 PHY_EDGE_ROW_4_Right_4
*491 PHY_EDGE_ROW_5_Left_28
*492 PHY_EDGE_ROW_5_Right_5
*493 PHY_EDGE_ROW_6_Left_29
*494 PHY_EDGE_ROW_6_Right_6
*495 PHY_EDGE_ROW_7_Left_30
*496 PHY_EDGE_ROW_7_Right_7
*497 PHY_EDGE_ROW_8_Left_31
*498 PHY_EDGE_ROW_8_Right_8
*499 PHY_EDGE_ROW_9_Left_32
*500 PHY_EDGE_ROW_9_Right_9
*501 TAP_TAPCELL_ROW_0_46
*502 TAP_TAPCELL_ROW_0_47
*503 TAP_TAPCELL_ROW_0_48
*504 TAP_TAPCELL_ROW_0_49
*505 TAP_TAPCELL_ROW_10_68
*506 TAP_TAPCELL_ROW_10_69
*507 TAP_TAPCELL_ROW_11_70
*508 TAP_TAPCELL_ROW_11_71
*509 TAP_TAPCELL_ROW_12_72
*510 TAP_TAPCELL_ROW_12_73
*511 TAP_TAPCELL_ROW_13_74
*512 TAP_TAPCELL_ROW_13_75
*513 TAP_TAPCELL_ROW_14_76
*514 TAP_TAPCELL_ROW_14_77
*515 TAP_TAPCELL_ROW_15_78
*516 TAP_TAPCELL_ROW_15_79
*517 TAP_TAPCELL_ROW_16_80
*518 TAP_TAPCELL_ROW_16_81
*519 TAP_TAPCELL_ROW_17_82
*520 TAP_TAPCELL_ROW_17_83
*521 TAP_TAPCELL_ROW_18_84
*522 TAP_TAPCELL_ROW_18_85
*523 TAP_TAPCELL_ROW_19_86
*524 TAP_TAPCELL_ROW_19_87
*525 TAP_TAPCELL_ROW_1_50
*526 TAP_TAPCELL_ROW_1_51
*527 TAP_TAPCELL_ROW_20_88
*528 TAP_TAPCELL_ROW_20_89
*529 TAP_TAPCELL_ROW_21_90
*530 TAP_TAPCELL_ROW_21_91
*531 TAP_TAPCELL_ROW_22_92
*532 TAP_TAPCELL_ROW_22_93
*533 TAP_TAPCELL_ROW_22_94
*534 TAP_TAPCELL_ROW_22_95
*535 TAP_TAPCELL_ROW_2_52
*536 TAP_TAPCELL_ROW_2_53
*537 TAP_TAPCELL_ROW_3_54
*538 TAP_TAPCELL_ROW_3_55
*539 TAP_TAPCELL_ROW_4_56
*540 TAP_TAPCELL_ROW_4_57
*541 TAP_TAPCELL_ROW_5_58
*542 TAP_TAPCELL_ROW_5_59
*543 TAP_TAPCELL_ROW_6_60
*544 TAP_TAPCELL_ROW_6_61
*545 TAP_TAPCELL_ROW_7_62
*546 TAP_TAPCELL_ROW_7_63
*547 TAP_TAPCELL_ROW_8_64
*548 TAP_TAPCELL_ROW_8_65
*549 TAP_TAPCELL_ROW_9_66
*550 TAP_TAPCELL_ROW_9_67
*551 _167_
*552 _168_
*553 _169_
*554 _170_
*555 _171_
*556 _172_
*557 _173_
*558 _174_
*559 _175_
*560 _176_
*561 _177_
*562 _178_
*563 _179_
*564 _180_
*565 _181_
*566 _182_
*567 _183_
*568 _184_
*569 _185_
*570 _186_
*571 _187_
*572 _188_
*573 _189_
*574 _190_
*575 _191_
*576 _192_
*577 _193_
*578 _194_
*579 _195_
*580 _196_
*581 _197_
*582 _198_
*583 _199_
*584 _200_
*585 _201_
*586 _202_
*587 _203_
*588 _204_
*589 _205_
*590 _206_
*591 _207_
*592 _208_
*593 _209_
*594 _210_
*595 _211_
*596 _212_
*597 _213_
*598 _214_
*599 _215_
*600 _216_
*601 _217_
*602 _218_
*603 _219_
*604 _220_
*605 _221_
*606 _222_
*607 _223_
*608 _224_
*609 _225_
*610 _226_
*611 _227_
*612 _228_
*613 _229_
*614 _230_
*615 _231_
*616 _232_
*617 _233_
*618 _234_
*619 _235_
*620 _236_
*621 _237_
*622 _238_
*623 _239_
*624 _240_
*625 _241_
*626 _242_
*627 _243_
*628 _244_
*629 _245_
*630 _246_
*631 _247_
*632 _248_
*633 _249_
*634 _250_
*635 _251_
*636 _252_
*637 _253_
*638 _254_
*639 _255_
*640 _256_
*641 _257_
*642 _258_
*643 _259_
*644 _260_
*645 _261_
*646 _262_
*647 _263_
*648 _264_
*649 _265_
*650 _266_
*651 _267_
*652 _268_
*653 _269_
*654 _270_
*655 _271_
*656 _272_
*657 _273_
*658 _274_
*659 _275_
*660 _276_
*661 _277_
*662 _278_
*663 _279_
*664 _280_
*665 _281_
*666 _282_
*667 _283_
*668 _284_
*669 _285_
*670 _286_
*671 _287_
*672 _288_
*673 _289_
*674 _290_
*675 _291_
*676 _292_
*677 _293_
*678 _294_
*679 _295_
*680 _296_
*681 _297_
*682 _298_
*683 _299_
*684 _300_
*685 _301_
*686 _302_
*687 _303_
*688 _304_
*689 _305_
*690 _306_
*691 _307_
*692 _308_
*693 _309_
*694 _310_
*695 _311_
*696 _312_
*697 _313_
*698 _314_
*699 _315_
*700 _316_
*701 _317_
*702 _318_
*703 _319_
*704 _320_
*705 _321_
*706 _322_
*707 _323_
*708 _324_
*709 _325_
*710 _326_
*711 _327_
*712 _328_
*713 _329_
*714 _330_
*715 _331_
*716 _332_
*717 _333_
*718 _334_
*719 _335_
*720 _336_
*721 _337_
*722 _338_
*723 _339_
*724 _340_
*725 _341_
*726 _342_
*727 _343_
*728 _344_
*729 _345_
*730 _346_
*731 _347_
*732 _348_
*733 _349_
*734 _350_
*735 _351_
*736 _352_
*737 _353_
*738 _354_
*739 _355_
*740 _356_
*741 _357_
*742 _358_
*743 _359_
*744 _360_
*745 _361_
*746 _362_
*747 _363_
*748 _364_
*749 _365_
*750 _366_
*751 _367_
*752 _368_
*753 _369_
*754 _369__9
*755 _371_
*756 clkbuf_0_clk
*757 clkbuf_2_0__f_clk
*758 clkbuf_2_1__f_clk
*759 clkbuf_2_2__f_clk
*760 clkbuf_2_3__f_clk
*761 clkload0
*762 clkload1
*763 clkload2
*764 hold1
*765 hold2
*766 hold3
*767 hold4
*768 hold5
*769 input1
*770 output2
*771 output3
*772 output4
*773 output5
*774 output6
*775 output7
*776 output8

*PORTS
clk I
rst I
seg[0] O
seg[1] O
seg[2] O
seg[3] O
seg[4] O
seg[5] O
seg[6] O

*D_NET *3 0.00813333
*CONN
*P clk I
*I *756:A I *D sky130_fd_sc_hd__clkbuf_16
*CAP
1 clk 0.00391156
2 *756:A 0.00391156
3 *756:A *564:A1 0
4 *756:A *569:B 0
5 *756:A *753:RESET_B 9.25014e-06
6 *756:A *98:80 0.000293534
7 *756:A *202:10 7.43578e-06
*RES
1 clk *756:A 37.8631 
*END

*D_NET *4 0.000632537
*CONN
*P rst I
*I *769:A I *D sky130_fd_sc_hd__buf_1
*CAP
1 rst 0.000316269
2 *769:A 0.000316269
*RES
1 rst *769:A 21.0874 
*END

*D_NET *5 0.000830085
*CONN
*P seg[0] O
*I *770:X O *D sky130_fd_sc_hd__buf_2
*CAP
1 seg[0] 0.000315671
2 *770:X 0.000315671
3 seg[0] seg[1] 9.54485e-05
4 seg[0] seg[3] 8.39501e-05
5 seg[0] *770:A 1.01912e-05
6 seg[0] *226:58 9.15186e-06
*RES
1 *770:X seg[0] 18.5553 
*END

*D_NET *6 0.000627209
*CONN
*P seg[1] O
*I *771:X O *D sky130_fd_sc_hd__buf_2
*CAP
1 seg[1] 0.000198513
2 *771:X 0.000198513
3 seg[1] seg[6] 9.54485e-05
4 seg[1] *688:B 0
5 seg[1] *771:A 3.92854e-05
6 seg[0] seg[1] 9.54485e-05
*RES
1 *771:X seg[1] 19.4092 
*END

*D_NET *7 0.000516457
*CONN
*P seg[2] O
*I *772:X O *D sky130_fd_sc_hd__buf_2
*CAP
1 seg[2] 0.000176865
2 *772:X 0.000176865
3 seg[2] seg[3] 7.55579e-05
4 seg[2] seg[5] 7.55579e-05
5 seg[2] *772:A 1.16107e-05
*RES
1 *772:X seg[2] 18.1949 
*END

*D_NET *8 0.000905379
*CONN
*P seg[3] O
*I *773:X O *D sky130_fd_sc_hd__buf_2
*CAP
1 seg[3] 0.000267109
2 *773:X 0.000267109
3 seg[3] *773:A 0.000211652
4 seg[0] seg[3] 8.39501e-05
5 seg[2] seg[3] 7.55579e-05
*RES
1 *773:X seg[3] 20.6235 
*END

*D_NET *9 0.000672037
*CONN
*P seg[4] O
*I *774:X O *D sky130_fd_sc_hd__buf_2
*CAP
1 seg[4] 0.000271272
2 *774:X 0.000271272
3 seg[4] seg[6] 7.7451e-05
4 seg[4] *774:A 5.20422e-05
*RES
1 *774:X seg[4] 19.7128 
*END

*D_NET *10 0.000559491
*CONN
*P seg[5] O
*I *775:X O *D sky130_fd_sc_hd__buf_2
*CAP
1 seg[5] 0.000241966
2 *775:X 0.000241966
3 seg[5] *686:A 0
4 seg[2] seg[5] 7.55579e-05
*RES
1 *775:X seg[5] 18.8021 
*END

*D_NET *11 0.000560656
*CONN
*P seg[6] O
*I *776:X O *D sky130_fd_sc_hd__buf_2
*CAP
1 seg[6] 0.000193878
2 *776:X 0.000193878
3 seg[1] seg[6] 9.54485e-05
4 seg[4] seg[6] 7.7451e-05
*RES
1 *776:X seg[6] 18.8021 
*END

*D_NET *12 0.000274806
*CONN
*I *726:D I *D sky130_fd_sc_hd__dfrtp_1
*I *581:X O *D sky130_fd_sc_hd__clkbuf_1
*CAP
1 *726:D 0.000126583
2 *581:X 0.000126583
3 *726:D *590:A 6.05161e-06
4 *726:D *726:CLK 0
5 *726:D *180:22 1.55885e-05
*RES
1 *581:X *726:D 29.475 
*END

*D_NET *13 0.00102495
*CONN
*I *736:D I *D sky130_fd_sc_hd__dfrtp_1
*I *619:X O *D sky130_fd_sc_hd__clkbuf_1
*CAP
1 *736:D 0.000275261
2 *619:X 0.000275261
3 *736:D *618:B 5.33005e-05
4 *736:D *628:B 7.25614e-05
5 *736:D *738:RESET_B 5.52238e-05
6 *736:D *182:66 6.82498e-05
7 *736:D *182:70 0.000225096
*RES
1 *619:X *736:D 23.7116 
*END

*D_NET *14 0.000298778
*CONN
*I *737:D I *D sky130_fd_sc_hd__dfrtp_1
*I *623:X O *D sky130_fd_sc_hd__clkbuf_1
*CAP
1 *737:D 0.000133408
2 *623:X 0.000133408
3 *737:D *623:A 1.32293e-05
4 *737:D *176:118 1.87331e-05
*RES
1 *623:X *737:D 20.7964 
*END

*D_NET *15 0.00141853
*CONN
*I *738:D I *D sky130_fd_sc_hd__dfrtp_1
*I *629:X O *D sky130_fd_sc_hd__clkbuf_1
*CAP
1 *738:D 0.000353657
2 *629:X 0.000353657
3 *738:D *628:C 0.000142322
4 *738:D *629:A 0
5 *738:D *631:B 3.23884e-06
6 *738:D *709:A 0.000102403
7 *738:D *738:CLK 7.57312e-05
8 *738:D *176:97 0.000160403
9 *738:D *176:118 0.000227113
*RES
1 *629:X *738:D 34.9929 
*END

*D_NET *16 0.000720569
*CONN
*I *739:D I *D sky130_fd_sc_hd__dfrtp_1
*I *633:X O *D sky130_fd_sc_hd__clkbuf_1
*CAP
1 *739:D 0.000171312
2 *633:X 0.000171312
3 *739:D *632:C 0.000163514
4 *739:D *633:A 0.00021443
*RES
1 *633:X *739:D 32.6536 
*END

*D_NET *17 0.000645042
*CONN
*I *740:D I *D sky130_fd_sc_hd__dfrtp_1
*I *636:X O *D sky130_fd_sc_hd__o211a_1
*CAP
1 *740:D 0.000300621
2 *636:X 0.000300621
3 *740:D *630:A 4.37999e-05
4 *740:D *739:CLK 0
*RES
1 *636:X *740:D 32.725 
*END

*D_NET *18 0.000345525
*CONN
*I *741:D I *D sky130_fd_sc_hd__dfrtp_1
*I *641:X O *D sky130_fd_sc_hd__clkbuf_1
*CAP
1 *741:D 0.000135426
2 *641:X 0.000135426
3 *741:D *630:B 3.67257e-05
4 *741:D *641:A 0
5 *741:D *181:80 3.79467e-05
*RES
1 *641:X *741:D 29.8857 
*END

*D_NET *19 0.000381675
*CONN
*I *742:D I *D sky130_fd_sc_hd__dfrtp_1
*I *645:X O *D sky130_fd_sc_hd__clkbuf_1
*CAP
1 *742:D 0.000121451
2 *645:X 0.000121451
3 *742:D *645:A 0.000138774
*RES
1 *645:X *742:D 20.283 
*END

*D_NET *20 0.000533215
*CONN
*I *743:D I *D sky130_fd_sc_hd__dfrtp_2
*I *649:X O *D sky130_fd_sc_hd__clkbuf_1
*CAP
1 *743:D 0.000198924
2 *649:X 0.000198924
3 *743:D *649:A 0.000101472
4 *743:D *177:14 3.38968e-05
*RES
1 *649:X *743:D 30.7071 
*END

*D_NET *21 0.00155813
*CONN
*I *744:D I *D sky130_fd_sc_hd__dfrtp_1
*I *651:X O *D sky130_fd_sc_hd__o211a_1
*CAP
1 *744:D 0.000459815
2 *651:X 0.000459815
3 *744:D *651:A1 5.65955e-05
4 *744:D *651:B1 1.64621e-05
5 *744:D *765:A 0.000227921
6 *744:D *142:82 9.41642e-05
7 *744:D *148:10 7.0203e-05
8 *744:D *191:10 0.000173152
*RES
1 *651:X *744:D 36.6714 
*END

*D_NET *22 0.00073104
*CONN
*I *745:D I *D sky130_fd_sc_hd__dfrtp_1
*I *656:X O *D sky130_fd_sc_hd__clkbuf_1
*CAP
1 *745:D 0.00027673
2 *656:X 0.00027673
3 *745:D *179:14 0.00017758
*RES
1 *656:X *745:D 31.6938 
*END

*D_NET *23 0.000446581
*CONN
*I *727:D I *D sky130_fd_sc_hd__dfrtp_1
*I *586:X O *D sky130_fd_sc_hd__clkbuf_1
*CAP
1 *727:D 0.00022329
2 *586:X 0.00022329
*RES
1 *586:X *727:D 30.6 
*END

*D_NET *24 0.000651437
*CONN
*I *746:D I *D sky130_fd_sc_hd__dfrtp_1
*I *660:X O *D sky130_fd_sc_hd__clkbuf_1
*CAP
1 *746:D 0.000175222
2 *660:X 0.000175222
3 *746:D *715:A 5.49544e-05
4 *746:D *746:CLK 1.64621e-05
5 *746:D *746:RESET_B 9.99853e-05
6 *746:D *177:24 0.000129591
*RES
1 *660:X *746:D 31.4393 
*END

*D_NET *25 0.000646723
*CONN
*I *747:D I *D sky130_fd_sc_hd__dfrtp_1
*I *664:X O *D sky130_fd_sc_hd__clkbuf_1
*CAP
1 *747:D 0.000300321
2 *664:X 0.000300321
3 *747:D *747:CLK 4.60805e-05
*RES
1 *664:X *747:D 31.8321 
*END

*D_NET *26 0.0006216
*CONN
*I *748:D I *D sky130_fd_sc_hd__dfrtp_1
*I *668:X O *D sky130_fd_sc_hd__clkbuf_1
*CAP
1 *748:D 0.0003108
2 *668:X 0.0003108
*RES
1 *668:X *748:D 32.725 
*END

*D_NET *27 0.000748256
*CONN
*I *749:D I *D sky130_fd_sc_hd__dfrtp_1
*I *671:X O *D sky130_fd_sc_hd__o211a_1
*CAP
1 *749:D 0.000265303
2 *671:X 0.000265303
3 *749:D *717:A 1.757e-05
4 *749:D *748:RESET_B 7.74135e-05
5 *749:D *179:58 0.000122666
*RES
1 *671:X *749:D 31.408 
*END

*D_NET *28 0.000186505
*CONN
*I *750:D I *D sky130_fd_sc_hd__dfrtp_1
*I *675:X O *D sky130_fd_sc_hd__clkbuf_1
*CAP
1 *750:D 9.32525e-05
2 *675:X 9.32525e-05
3 *750:D *720:A 0
4 *750:D *750:RESET_B 0
*RES
1 *675:X *750:D 29.2429 
*END

*D_NET *29 0.000629067
*CONN
*I *751:D I *D sky130_fd_sc_hd__dfrtp_1
*I *677:X O *D sky130_fd_sc_hd__o211a_1
*CAP
1 *751:D 0.000102559
2 *677:X 0.000102559
3 *751:D *677:C1 9.84729e-05
4 *751:D *751:CLK 9.99853e-05
5 *751:D *181:51 1.62025e-05
6 *751:D *181:53 4.4456e-05
7 *751:D *200:16 0.000164832
*RES
1 *677:X *751:D 22.4214 
*END

*D_NET *30 0.00156254
*CONN
*I *752:D I *D sky130_fd_sc_hd__dfrtp_1
*I *678:Y O *D sky130_fd_sc_hd__a21boi_1
*CAP
1 *752:D 0.000590656
2 *678:Y 0.000590656
3 *752:D *753:CLK 5.74242e-05
4 *752:D *181:10 0.000140092
5 *752:D *201:8 0.000183711
*RES
1 *678:Y *752:D 38.4929 
*END

*D_NET *31 0.000381443
*CONN
*I *728:D I *D sky130_fd_sc_hd__dfrtp_1
*I *590:X O *D sky130_fd_sc_hd__clkbuf_1
*CAP
1 *728:D 0.000127898
2 *590:X 0.000127898
3 *728:D *180:18 7.11157e-05
4 *728:D *180:22 5.45307e-05
*RES
1 *590:X *728:D 21.2071 
*END

*D_NET *32 0.000554678
*CONN
*I *729:D I *D sky130_fd_sc_hd__dfrtp_1
*I *593:X O *D sky130_fd_sc_hd__clkbuf_1
*CAP
1 *729:D 0.000143885
2 *593:X 0.000143885
3 *729:D *580:B 0.00010054
4 *729:D *729:RESET_B 2.89114e-05
5 *729:D *758:A 0.000102056
6 *729:D *175:18 2.07878e-05
7 *729:D *175:29 1.46148e-05
*RES
1 *593:X *729:D 30.2964 
*END

*D_NET *33 0.000360687
*CONN
*I *730:D I *D sky130_fd_sc_hd__dfrtp_1
*I *597:X O *D sky130_fd_sc_hd__clkbuf_1
*CAP
1 *730:D 0.000170698
2 *597:X 0.000170698
3 *730:D *180:86 1.92905e-05
*RES
1 *597:X *730:D 20.7964 
*END

*D_NET *34 0.000386016
*CONN
*I *731:D I *D sky130_fd_sc_hd__dfrtp_1
*I *601:X O *D sky130_fd_sc_hd__clkbuf_1
*CAP
1 *731:D 0.000179143
2 *601:X 0.000179143
3 *731:D *599:A1 4.82744e-06
4 *731:D *599:B1 2.29031e-05
*RES
1 *601:X *731:D 30.1893 
*END

*D_NET *35 0.000526747
*CONN
*I *732:D I *D sky130_fd_sc_hd__dfrtp_1
*I *605:X O *D sky130_fd_sc_hd__clkbuf_1
*CAP
1 *732:D 0.000238594
2 *605:X 0.000238594
3 *732:D *603:A 0
4 *732:D *605:A 1.93007e-05
5 *732:D *175:104 9.12348e-06
6 *732:D *207:8 2.11336e-05
*RES
1 *605:X *732:D 31.3857 
*END

*D_NET *36 0.000813148
*CONN
*I *733:D I *D sky130_fd_sc_hd__dfrtp_1
*I *608:X O *D sky130_fd_sc_hd__clkbuf_1
*CAP
1 *733:D 0.000197212
2 *608:X 0.000197212
3 *733:D *580:B 0.000227765
4 *733:D *701:A 0.000126416
5 *733:D *175:18 6.45442e-05
*RES
1 *608:X *733:D 31.4214 
*END

*D_NET *37 0.0012636
*CONN
*I *734:D I *D sky130_fd_sc_hd__dfrtp_1
*I *611:X O *D sky130_fd_sc_hd__clkbuf_1
*CAP
1 *734:D 0.000401051
2 *611:X 0.000401051
3 *734:D *702:A 3.69047e-06
4 *734:D *86:48 6.05161e-06
5 *734:D *91:42 0.000329909
6 *734:D *176:55 0.000121842
*RES
1 *611:X *734:D 35.6536 
*END

*D_NET *38 0.000320418
*CONN
*I *735:D I *D sky130_fd_sc_hd__dfrtp_1
*I *615:X O *D sky130_fd_sc_hd__clkbuf_1
*CAP
1 *735:D 0.000112171
2 *615:X 0.000112171
3 *735:D *91:8 0
4 *735:D *91:25 9.60771e-05
*RES
1 *615:X *735:D 20.7964 
*END

*D_NET *39 0.00116279
*CONN
*I *723:RESET_B I *D sky130_fd_sc_hd__dfrtp_1
*I *690:Y O *D sky130_fd_sc_hd__inv_2
*CAP
1 *723:RESET_B 0.000445523
2 *690:Y 0.000445523
3 *723:RESET_B *688:A 5.49544e-05
4 *723:RESET_B *688:B 7.27282e-05
5 *723:RESET_B *690:A 6.72362e-05
6 *723:RESET_B *725:RESET_B 5.71472e-05
7 *723:RESET_B *767:A 1.6806e-05
8 *723:RESET_B *227:8 2.87555e-06
*RES
1 *690:Y *723:RESET_B 25.7196 
*END

*D_NET *40 0.000208214
*CONN
*I *724:RESET_B I *D sky130_fd_sc_hd__dfrtp_2
*I *691:Y O *D sky130_fd_sc_hd__inv_2
*CAP
1 *724:RESET_B 7.07662e-05
2 *691:Y 7.07662e-05
3 *724:RESET_B *175:115 6.66813e-05
*RES
1 *691:Y *724:RESET_B 19.9429 
*END

*D_NET *41 0.000408073
*CONN
*I *725:RESET_B I *D sky130_fd_sc_hd__dfrtp_2
*I *692:Y O *D sky130_fd_sc_hd__inv_2
*CAP
1 *725:RESET_B 0.000146935
2 *692:Y 0.000146935
3 *725:RESET_B *227:8 5.70551e-05
4 *723:RESET_B *725:RESET_B 5.71472e-05
*RES
1 *692:Y *725:RESET_B 12.2375 
*END

*D_NET *42 0.000352588
*CONN
*I *726:RESET_B I *D sky130_fd_sc_hd__dfrtp_1
*I *693:Y O *D sky130_fd_sc_hd__inv_2
*CAP
1 *726:RESET_B 8.59141e-05
2 *693:Y 8.59141e-05
3 *726:RESET_B *695:A 0.000123613
4 *726:RESET_B *183:10 5.71472e-05
*RES
1 *693:Y *726:RESET_B 11.4161 
*END

*D_NET *43 0.000473022
*CONN
*I *727:RESET_B I *D sky130_fd_sc_hd__dfrtp_1
*I *694:Y O *D sky130_fd_sc_hd__inv_2
*CAP
1 *727:RESET_B 0.000140003
2 *694:Y 0.000140003
3 *727:RESET_B *694:A 2.07878e-05
4 *727:RESET_B *175:37 0.000172228
*RES
1 *694:Y *727:RESET_B 21.0857 
*END

*D_NET *44 0.000954317
*CONN
*I *728:RESET_B I *D sky130_fd_sc_hd__dfrtp_1
*I *695:Y O *D sky130_fd_sc_hd__inv_2
*CAP
1 *728:RESET_B 0.000449533
2 *695:Y 0.000449533
3 *728:RESET_B *183:10 5.52505e-05
*RES
1 *695:Y *728:RESET_B 24.6571 
*END

*D_NET *45 0.000875468
*CONN
*I *729:RESET_B I *D sky130_fd_sc_hd__dfrtp_1
*I *696:Y O *D sky130_fd_sc_hd__inv_2
*CAP
1 *729:RESET_B 0.000188543
2 *696:Y 0.000188543
3 *729:RESET_B *758:A 0
4 *729:RESET_B *87:12 0.000153054
5 *729:RESET_B *175:29 0.000316416
6 *729:D *729:RESET_B 2.89114e-05
*RES
1 *696:Y *729:RESET_B 23.2464 
*END

*D_NET *46 0.000215458
*CONN
*I *730:RESET_B I *D sky130_fd_sc_hd__dfrtp_1
*I *697:Y O *D sky130_fd_sc_hd__inv_2
*CAP
1 *730:RESET_B 5.62892e-05
2 *697:Y 5.62892e-05
3 *730:RESET_B *175:78 0.00010288
*RES
1 *697:Y *730:RESET_B 19.6393 
*END

*D_NET *47 0.00043964
*CONN
*I *731:RESET_B I *D sky130_fd_sc_hd__dfrtp_1
*I *698:Y O *D sky130_fd_sc_hd__inv_2
*CAP
1 *731:RESET_B 0.000108585
2 *698:Y 0.000108585
3 *731:RESET_B *175:89 0.000222471
*RES
1 *698:Y *731:RESET_B 21.1571 
*END

*D_NET *48 0.000473399
*CONN
*I *732:RESET_B I *D sky130_fd_sc_hd__dfrtp_1
*I *699:Y O *D sky130_fd_sc_hd__inv_2
*CAP
1 *732:RESET_B 0.0002367
2 *699:Y 0.0002367
*RES
1 *699:Y *732:RESET_B 22.2107 
*END

*D_NET *49 0.00049518
*CONN
*I *733:RESET_B I *D sky130_fd_sc_hd__dfrtp_1
*I *701:Y O *D sky130_fd_sc_hd__inv_2
*CAP
1 *733:RESET_B 0.000185379
2 *701:Y 0.000185379
3 *733:RESET_B *608:A 0.000124422
*RES
1 *701:Y *733:RESET_B 22.1036 
*END

*D_NET *50 0.000434958
*CONN
*I *734:RESET_B I *D sky130_fd_sc_hd__dfrtp_1
*I *702:Y O *D sky130_fd_sc_hd__inv_2
*CAP
1 *734:RESET_B 0.000142507
2 *702:Y 0.000142507
3 *734:RESET_B *702:A 3.69047e-06
4 *734:RESET_B *176:55 0.000146254
*RES
1 *702:Y *734:RESET_B 20.7821 
*END

*D_NET *51 0.000844004
*CONN
*I *735:RESET_B I *D sky130_fd_sc_hd__dfrtp_1
*I *703:Y O *D sky130_fd_sc_hd__inv_2
*CAP
1 *735:RESET_B 0.00021828
2 *703:Y 0.00021828
3 *735:RESET_B *612:A 4.17433e-05
4 *735:RESET_B *612:B 0.000142702
5 *735:RESET_B *86:48 8.87062e-05
6 *735:RESET_B *210:8 0.000134292
*RES
1 *703:Y *735:RESET_B 14.2911 
*END

*D_NET *52 0.000506994
*CONN
*I *736:RESET_B I *D sky130_fd_sc_hd__dfrtp_1
*I *704:Y O *D sky130_fd_sc_hd__inv_2
*CAP
1 *736:RESET_B 0.000103586
2 *704:Y 0.000103586
3 *736:RESET_B *705:A 0.000175519
4 *736:RESET_B *125:10 5.52238e-05
5 *736:RESET_B *176:84 9.25014e-06
6 *736:RESET_B *185:10 5.98293e-05
*RES
1 *704:Y *736:RESET_B 21.0857 
*END

*D_NET *53 0.000519704
*CONN
*I *737:RESET_B I *D sky130_fd_sc_hd__dfrtp_1
*I *705:Y O *D sky130_fd_sc_hd__inv_2
*CAP
1 *737:RESET_B 8.88689e-05
2 *705:Y 8.88689e-05
3 *737:RESET_B *622:A 2.24718e-05
4 *737:RESET_B *705:A 0.000185124
5 *737:RESET_B *185:8 0.00013437
*RES
1 *705:Y *737:RESET_B 11.8268 
*END

*D_NET *54 0.000874048
*CONN
*I *738:RESET_B I *D sky130_fd_sc_hd__dfrtp_1
*I *706:Y O *D sky130_fd_sc_hd__inv_2
*CAP
1 *738:RESET_B 0.000247731
2 *706:Y 0.000247731
3 *738:RESET_B *618:C 2.6541e-05
4 *738:RESET_B *628:B 8.73748e-05
5 *738:RESET_B *709:A 5.13107e-05
6 *738:RESET_B *738:CLK 0.000121165
7 *738:RESET_B *176:97 3.69697e-05
8 *736:D *738:RESET_B 5.52238e-05
*RES
1 *706:Y *738:RESET_B 22.7286 
*END

*D_NET *55 0.000321885
*CONN
*I *739:RESET_B I *D sky130_fd_sc_hd__dfrtp_1
*I *707:Y O *D sky130_fd_sc_hd__inv_2
*CAP
1 *739:RESET_B 0.00013675
2 *707:Y 0.00013675
3 *739:RESET_B *632:C 4.83849e-05
*RES
1 *707:Y *739:RESET_B 11.4161 
*END

*D_NET *56 0.000862272
*CONN
*I *740:RESET_B I *D sky130_fd_sc_hd__dfrtp_1
*I *708:Y O *D sky130_fd_sc_hd__inv_2
*CAP
1 *740:RESET_B 0.000275075
2 *708:Y 0.000275075
3 *740:RESET_B *556:C 9.59055e-06
4 *740:RESET_B *628:B 6.05161e-06
5 *740:RESET_B *629:A 4.61453e-05
6 *740:RESET_B *632:C 0.000136682
7 *740:RESET_B *707:A 2.85321e-05
8 *740:RESET_B *187:10 0
9 *740:RESET_B *187:12 1.12381e-05
10 *740:RESET_B *187:36 2.05823e-05
11 *740:RESET_B *188:8 5.33005e-05
*RES
1 *708:Y *740:RESET_B 23.1125 
*END

*D_NET *57 0.000769516
*CONN
*I *741:RESET_B I *D sky130_fd_sc_hd__dfrtp_1
*I *709:Y O *D sky130_fd_sc_hd__inv_2
*CAP
1 *741:RESET_B 0.000358721
2 *709:Y 0.000358721
3 *741:RESET_B *640:C 0
4 *741:RESET_B *759:A 5.20751e-05
5 *741:RESET_B *78:10 0
6 *741:RESET_B *133:12 0
*RES
1 *709:Y *741:RESET_B 23.2464 
*END

*D_NET *58 0.00087919
*CONN
*I *742:RESET_B I *D sky130_fd_sc_hd__dfrtp_1
*I *710:Y O *D sky130_fd_sc_hd__inv_2
*CAP
1 *742:RESET_B 0.000358103
2 *710:Y 0.000358103
3 *742:RESET_B *644:B 6.05207e-05
4 *742:RESET_B *101:14 5.00824e-05
5 *742:RESET_B *176:6 5.23822e-05
*RES
1 *710:Y *742:RESET_B 24.3982 
*END

*D_NET *59 0.000446839
*CONN
*I *743:RESET_B I *D sky130_fd_sc_hd__dfrtp_2
*I *712:Y O *D sky130_fd_sc_hd__inv_2
*CAP
1 *743:RESET_B 0.000135637
2 *712:Y 0.000135637
3 *743:RESET_B *712:A 6.05161e-06
4 *743:RESET_B *744:RESET_B 0.000114511
5 *743:RESET_B *177:10 5.50022e-05
*RES
1 *712:Y *743:RESET_B 21.3893 
*END

*D_NET *60 0.000843073
*CONN
*I *744:RESET_B I *D sky130_fd_sc_hd__dfrtp_1
*I *713:Y O *D sky130_fd_sc_hd__inv_2
*CAP
1 *744:RESET_B 0.000307354
2 *713:Y 0.000307354
3 *744:RESET_B *712:A 5.33334e-05
4 *744:RESET_B *191:10 6.05207e-05
5 *743:RESET_B *744:RESET_B 0.000114511
*RES
1 *713:Y *744:RESET_B 24.3357 
*END

*D_NET *61 0.000273773
*CONN
*I *745:RESET_B I *D sky130_fd_sc_hd__dfrtp_1
*I *714:Y O *D sky130_fd_sc_hd__inv_2
*CAP
1 *745:RESET_B 0.000122862
2 *714:Y 0.000122862
3 *745:RESET_B *177:14 2.27416e-05
4 *745:RESET_B *177:24 5.30637e-06
5 *745:RESET_B *195:10 0
*RES
1 *714:Y *745:RESET_B 20.175 
*END

*D_NET *62 0.000593839
*CONN
*I *746:RESET_B I *D sky130_fd_sc_hd__dfrtp_1
*I *715:Y O *D sky130_fd_sc_hd__inv_2
*CAP
1 *746:RESET_B 0.000173923
2 *715:Y 0.000173923
3 *746:RESET_B *660:A 4.27842e-06
4 *746:RESET_B *746:CLK 0.000141729
5 *746:RESET_B *195:10 0
6 *746:D *746:RESET_B 9.99853e-05
*RES
1 *715:Y *746:RESET_B 21.6036 
*END

*D_NET *63 0.00040282
*CONN
*I *747:RESET_B I *D sky130_fd_sc_hd__dfrtp_1
*I *716:Y O *D sky130_fd_sc_hd__inv_2
*CAP
1 *747:RESET_B 0.000108002
2 *716:Y 0.000108002
3 *747:RESET_B *716:A 0.000186817
*RES
1 *716:Y *747:RESET_B 11.4161 
*END

*D_NET *64 0.000481678
*CONN
*I *748:RESET_B I *D sky130_fd_sc_hd__dfrtp_1
*I *717:Y O *D sky130_fd_sc_hd__inv_2
*CAP
1 *748:RESET_B 0.000202132
2 *717:Y 0.000202132
3 *749:D *748:RESET_B 7.74135e-05
*RES
1 *717:Y *748:RESET_B 22.0679 
*END

*D_NET *65 0.000487487
*CONN
*I *749:RESET_B I *D sky130_fd_sc_hd__dfrtp_1