*SPEF "ieee 1481-1999"
*DESIGN "twos_complement"
*DATE "20:39:53 Saturday April 26, 2025"
*VENDOR "The OpenROAD Project"
*PROGRAM "OpenROAD"
*VERSION "b16bda7e82721d10566ff7e2b68f1ff0be9f9e38"
*DESIGN_FLOW "NAME_SCOPE LOCAL" "PIN_CAP NONE"
*DIVIDER /
*DELIMITER :
*BUS_DELIMITER []
*T_UNIT 1 NS
*C_UNIT 1 PF
*R_UNIT 1 OHM
*L_UNIT 1 HENRY

*NAME_MAP
*3 in[0]
*4 in[1]
*5 in[2]
*6 in[3]
*7 in[4]
*8 in[5]
*9 in[6]
*10 in[7]
*11 out[0]
*12 out[1]
*13 out[2]
*14 out[3]
*15 out[4]
*16 out[5]
*17 out[6]
*18 out[7]
*19 _00_
*20 _01_
*21 _02_
*22 _03_
*23 _04_
*24 _05_
*25 _06_
*26 _07_
*27 _08_
*28 net1
*29 net10
*30 net11
*31 net12
*32 net13
*33 net14
*34 net15
*35 net16
*36 net2
*37 net3
*38 net4
*39 net5
*40 net6
*41 net7
*42 net8
*43 net9
*44 FILLER_0_0_15
*45 FILLER_0_0_21
*46 FILLER_0_0_27
*47 FILLER_0_0_29
*48 FILLER_0_0_3
*49 FILLER_0_0_35
*50 FILLER_0_0_41
*51 FILLER_0_0_53
*52 FILLER_0_1_15
*53 FILLER_0_1_19
*54 FILLER_0_1_23
*55 FILLER_0_1_3
*56 FILLER_0_1_31
*57 FILLER_0_1_39
*58 FILLER_0_1_51
*59 FILLER_0_1_55
*60 FILLER_0_2_11
*61 FILLER_0_2_26
*62 FILLER_0_2_29
*63 FILLER_0_2_3
*64 FILLER_0_2_37
*65 FILLER_0_2_47
*66 FILLER_0_2_51
*67 FILLER_0_3_15
*68 FILLER_0_3_22
*69 FILLER_0_3_3
*70 FILLER_0_3_34
*71 FILLER_0_3_46
*72 FILLER_0_3_54
*73 FILLER_0_4_15
*74 FILLER_0_4_27
*75 FILLER_0_4_29
*76 FILLER_0_4_3
*77 FILLER_0_4_41
*78 FILLER_0_4_53
*79 FILLER_0_5_15
*80 FILLER_0_5_27
*81 FILLER_0_5_3
*82 FILLER_0_5_39
*83 FILLER_0_5_50
*84 FILLER_0_6_11
*85 FILLER_0_6_17
*86 FILLER_0_6_22
*87 FILLER_0_6_29
*88 FILLER_0_6_41
*89 FILLER_0_6_53
*90 FILLER_0_7_14
*91 FILLER_0_7_3
*92 FILLER_0_7_39
*93 FILLER_0_7_51
*94 FILLER_0_7_55
*95 FILLER_0_8_15
*96 FILLER_0_8_27
*97 FILLER_0_8_29
*98 FILLER_0_8_3
*99 FILLER_0_8_38
*100 FILLER_0_8_50
*101 FILLER_0_8_56
*102 FILLER_0_9_20
*103 FILLER_0_9_27
*104 FILLER_0_9_29
*105 FILLER_0_9_37
*106 FILLER_0_9_44
*107 FILLER_0_9_9
*108 PHY_EDGE_ROW_0_Left_10
*109 PHY_EDGE_ROW_0_Right_0
*110 PHY_EDGE_ROW_1_Left_11
*111 PHY_EDGE_ROW_1_Right_1
*112 PHY_EDGE_ROW_2_Left_12
*113 PHY_EDGE_ROW_2_Right_2
*114 PHY_EDGE_ROW_3_Left_13
*115 PHY_EDGE_ROW_3_Right_3
*116 PHY_EDGE_ROW_4_Left_14
*117 PHY_EDGE_ROW_4_Right_4
*118 PHY_EDGE_ROW_5_Left_15
*119 PHY_EDGE_ROW_5_Right_5
*120 PHY_EDGE_ROW_6_Left_16
*121 PHY_EDGE_ROW_6_Right_6
*122 PHY_EDGE_ROW_7_Left_17
*123 PHY_EDGE_ROW_7_Right_7
*124 PHY_EDGE_ROW_8_Left_18
*125 PHY_EDGE_ROW_8_Right_8
*126 PHY_EDGE_ROW_9_Left_19
*127 PHY_EDGE_ROW_9_Right_9
*128 TAP_TAPCELL_ROW_0_20
*129 TAP_TAPCELL_ROW_0_21
*130 TAP_TAPCELL_ROW_1_22
*131 TAP_TAPCELL_ROW_2_23
*132 TAP_TAPCELL_ROW_3_24
*133 TAP_TAPCELL_ROW_4_25
*134 TAP_TAPCELL_ROW_5_26
*135 TAP_TAPCELL_ROW_6_27
*136 TAP_TAPCELL_ROW_7_28
*137 TAP_TAPCELL_ROW_8_29
*138 TAP_TAPCELL_ROW_9_30
*139 TAP_TAPCELL_ROW_9_31
*140 _09_
*141 _10_
*142 _11_
*143 _12_
*144 _13_
*145 _14_
*146 _15_
*147 _16_
*148 _17_
*149 _18_
*150 _19_
*151 _20_
*152 _21_
*153 _22_
*154 _23_
*155 _24_
*156 _25_
*157 input1
*158 input2
*159 input3
*160 input4
*161 input5
*162 input6
*163 input7
*164 input8
*165 output10
*166 output11
*167 output12
*168 output13
*169 output14
*170 output15
*171 output16
*172 output9

*PORTS
in[0] I
in[1] I
in[2] I
in[3] I
in[4] I
in[5] I
in[6] I
in[7] I
out[0] O
out[1] O
out[2] O
out[3] O
out[4] O
out[5] O
out[6] O
out[7] O

*D_NET *3 0.000533718
*CONN
*P in[0] I
*I *157:A I *D sky130_fd_sc_hd__buf_1
*CAP
1 in[0] 0.000249329
2 *157:A 0.000249329
3 *157:A *158:A 3.14094e-05
4 *157:A *28:14 3.64998e-06
*RES
1 in[0] *157:A 6.8343 
*END

*D_NET *4 0.000922733
*CONN
*P in[1] I
*I *158:A I *D sky130_fd_sc_hd__buf_1
*CAP
1 in[1] 0.000357888
2 *158:A 0.000357888
3 *158:A out[0] 5.5449e-05
4 *158:A out[1] 0
5 *158:A *28:14 0.000120098
6 *158:A *36:12 0
7 *157:A *158:A 3.14094e-05
*RES
1 in[1] *158:A 7.48503 
*END

*D_NET *5 0.000822717
*CONN
*P in[2] I
*I *159:A I *D sky130_fd_sc_hd__clkbuf_1
*CAP
1 in[2] 0.000411359
2 *159:A 0.000411359
3 *159:A *160:A 0
*RES
1 in[2] *159:A 10.86 
*END

*D_NET *6 0.000821488
*CONN
*P in[3] I
*I *160:A I *D sky130_fd_sc_hd__clkbuf_1
*CAP
1 in[3] 0.000410744
2 *160:A 0.000410744
3 *160:A out[3] 0
4 *159:A *160:A 0
*RES
1 in[3] *160:A 10.86 
*END

*D_NET *7 0.000889696
*CONN
*P in[4] I
*I *161:A I *D sky130_fd_sc_hd__buf_1
*CAP
1 in[4] 0.000427218
2 *161:A 0.000427218
3 *161:A out[5] 0
4 *161:A *39:14 3.52601e-05
*RES
1 in[4] *161:A 11.04 
*END

*D_NET *8 0.000795459
*CONN
*P in[5] I
*I *162:A I *D sky130_fd_sc_hd__buf_1
*CAP
1 in[5] 0.000395647
2 *162:A 0.000395647
3 *162:A out[4] 0
4 *162:A out[5] 0
5 *162:A *169:A 4.1652e-06
*RES
1 in[5] *162:A 10.35 
*END

*D_NET *9 0.000758225
*CONN
*P in[6] I
*I *163:A I *D sky130_fd_sc_hd__clkbuf_1
*CAP
1 in[6] 0.000332979
2 *163:A 0.000332979
3 *163:A out[6] 5.71277e-05
4 *163:A out[7] 3.51384e-05
*RES
1 in[6] *163:A 6.37677 
*END

*D_NET *10 0.000884062
*CONN
*P in[7] I
*I *164:A I *D sky130_fd_sc_hd__clkbuf_1
*CAP
1 in[7] 0.00043314
2 *164:A 0.00043314
3 *164:A out[7] 1.77822e-05
*RES
1 in[7] *164:A 6.35003 
*END

*D_NET *11 0.000697048
*CONN
*P out[0] O
*I *172:X O *D sky130_fd_sc_hd__buf_2
*CAP
1 out[0] 0.000278661
2 *172:X 0.000278661
3 out[0] out[1] 5.43155e-05
4 out[0] *165:A 2.99619e-05
5 *158:A out[0] 5.5449e-05
*RES
1 *172:X out[0] 6.89023 
*END

*D_NET *12 0.000924295
*CONN
*P out[1] O
*I *165:X O *D sky130_fd_sc_hd__buf_2
*CAP
1 out[1] 0.00043499
2 *165:X 0.00043499
3 out[0] out[1] 5.43155e-05
4 *158:A out[1] 0
*RES
1 *165:X out[1] 5.19637 
*END

*D_NET *13 0.000837892
*CONN
*P out[2] O
*I *166:X O *D sky130_fd_sc_hd__clkbuf_4
*CAP
1 out[2] 0.000418946
2 *166:X 0.000418946
3 out[2] out[3] 0
*RES
1 *166:X out[2] 11.04 
*END

*D_NET *14 0.000889543
*CONN
*P out[3] O
*I *167:X O *D sky130_fd_sc_hd__clkbuf_4
*CAP
1 out[3] 0.000444772
2 *167:X 0.000444772
3 out[2] out[3] 0
4 *160:A out[3] 0
*RES
1 *167:X out[3] 11.145 
*END

*D_NET *15 0.00080428
*CONN
*P out[4] O
*I *168:X O *D sky130_fd_sc_hd__buf_2
*CAP
1 out[4] 0.00040214
2 *168:X 0.00040214
3 *162:A out[4] 0
*RES
1 *168:X out[4] 10.395 
*END

*D_NET *16 0.000837579
*CONN
*P out[5] O
*I *169:X O *D sky130_fd_sc_hd__buf_2
*CAP
1 out[5] 0.00041879
2 *169:X 0.00041879
3 *161:A out[5] 0
4 *162:A out[5] 0
*RES
1 *169:X out[5] 10.74 
*END

*D_NET *17 0.000677162
*CONN
*P out[6] O
*I *170:X O *D sky130_fd_sc_hd__buf_2
*CAP
1 out[6] 0.000310017
2 *170:X 0.000310017
3 *163:A out[6] 5.71277e-05
*RES
1 *170:X out[6] 5.16003 
*END

*D_NET *18 0.00080877
*CONN
*P out[7] O
*I *171:X O *D sky130_fd_sc_hd__buf_2
*CAP
1 out[7] 0.000377925
2 *171:X 0.000377925
3 *163:A out[7] 3.51384e-05
4 *164:A out[7] 1.77822e-05
*RES
1 *171:X out[7] 5.86503 
*END

*D_NET *19 0.00484316
*CONN
*I *155:B1_N I *D sky130_fd_sc_hd__a21boi_1
*I *142:B I *D sky130_fd_sc_hd__and2_1
*I *145:A3 I *D sky130_fd_sc_hd__o31a_1
*I *146:D I *D sky130_fd_sc_hd__or4_1
*I *141:B I *D sky130_fd_sc_hd__nor2_1
*I *140:X O *D sky130_fd_sc_hd__or4_2
*CAP
1 *155:B1_N 3.7157e-05
2 *142:B 0.000536098
3 *145:A3 1.36534e-05
4 *146:D 0
5 *141:B 0.000135673
6 *140:X 0.000178022
7 *19:16 0.000195826
8 *19:12 0.000120485
9 *19:10 0.00111515
10 *19:8 0.000747547
11 *141:B *141:A 0.00041935
12 *141:B *146:B 1.79174e-05
13 *141:B *40:12 9.183e-05
14 *142:B *142:A 7.98477e-05
15 *142:B *144:A 0.000430267
16 *142:B *145:A2 4.66108e-05
17 *142:B *145:B1 2.10214e-05
18 *145:A3 *142:A 4.66108e-05
19 *145:A3 *145:B1 4.66108e-05
20 *19:8 *153:B 0.000272857
21 *19:12 *146:C 1.46781e-05
22 *19:12 *40:18 4.04632e-05
23 *19:16 *146:C 8.19282e-05
24 *19:16 *40:18 0.00015356
*RES
1 *140:X *19:8 6.12 
2 *19:8 *19:10 8.9025 
3 *19:10 *19:12 0.9975 
4 *19:12 *19:16 3.89 
5 *19:16 *141:B 5.5 
6 *19:16 *146:D 1.6 
7 *19:12 *145:A3 4.05 
8 *19:10 *142:B 11.6775 
9 *19:8 *155:B1_N 4.215 
*END

*D_NET *20 0.00110199
*CONN
*I *143:A I *D sky130_fd_sc_hd__nor2_1
*I *144:B I *D sky130_fd_sc_hd__xnor2_1
*I *141:Y O *D sky130_fd_sc_hd__nor2_1
*CAP
1 *143:A 0.00028051
2 *144:B 0
3 *141:Y 0.000112914
4 *20:12 0.000393424
5 *143:A *142:A 7.08554e-05
6 *143:A *144:A 0.000121643
7 *20:12 *141:A 4.89295e-05
8 *20:12 *168:A 5.06832e-05
9 *20:12 *169:A 2.30258e-05
*RES
1 *141:Y *20:12 7.685 
2 *20:12 *144:B 1.6 
3 *20:12 *143:A 10.37 
*END

*D_NET *21 0.000310515
*CONN
*I *143:B I *D sky130_fd_sc_hd__nor2_1
*I *142:X O *D sky130_fd_sc_hd__and2_1
*CAP
1 *143:B 0.000119445
2 *142:X 0.000119445
3 *143:B *168:A 7.1624e-05
*RES
1 *142:X *143:B 9.285 
*END

*D_NET *22 0.000326656
*CONN
*I *147:A_N I *D sky130_fd_sc_hd__and2b_1
*I *145:X O *D sky130_fd_sc_hd__o31a_1
*CAP
1 *147:A_N 0.000106894
2 *145:X 0.000106894
3 *147:A_N *39:40 4.77719e-05
4 *147:A_N *41:14 6.50956e-05
*RES
1 *145:X *147:A_N 5.03 
*END

*D_NET *23 0.00153944
*CONN
*I *149:B I *D sky130_fd_sc_hd__xor2_1
*I *147:B I *D sky130_fd_sc_hd__and2b_1
*I *146:X O *D sky130_fd_sc_hd__or4_1
*CAP
1 *149:B 0.000358002
2 *147:B 6.2059e-05
3 *146:X 0.000245572
4 *23:10 0.000665632
5 *149:B *41:14 0.000142912
6 *23:10 *39:14 4.88478e-05
7 *23:10 *41:14 1.64141e-05
*RES
1 *146:X *23:10 6.975 
2 *23:10 *147:B 4.395 
3 *23:10 *149:B 10.11 
*END

*D_NET *24 0.000152131
*CONN
*I *148:A I *D sky130_fd_sc_hd__clkbuf_1
*I *147:X O *D sky130_fd_sc_hd__and2b_1
*CAP
1 *148:A 6.71681e-05
2 *147:X 6.71681e-05
3 *148:A *170:A 1.77945e-05
*RES
1 *147:X *148:A 4.355 
*END

*D_NET *25 0.00108706
*CONN
*I *153:A I *D sky130_fd_sc_hd__and2_1
*I *155:A2 I *D sky130_fd_sc_hd__a21boi_1
*I *151:X O *D sky130_fd_sc_hd__or3_1
*CAP
1 *153:A 7.13563e-05
2 *155:A2 0
3 *151:X 0.000205359
4 *25:12 0.000276716
5 *153:A *153:B 0.000129285
6 *153:A *155:A1 2.86975e-05
7 *153:A *167:A 5.07702e-05
8 *25:12 *140:A 0.000112081
9 *25:12 *140:C 1.52352e-05
10 *25:12 *140:D 4.89295e-05
11 *25:12 *153:B 0.000122801
12 *25:12 *155:A1 2.58336e-05
*RES
1 *151:X *25:12 5.8 
2 *25:12 *155:A2 1.6 
3 *25:12 *153:A 3.775 
*END

*D_NET *26 0.00140945
*CONN
*I *153:B I *D sky130_fd_sc_hd__and2_1
*I *152:Y O *D sky130_fd_sc_hd__o21ai_1
*CAP
1 *153:B 0.000417786
2 *152:Y 0.000417786
3 *153:B *152:B1 4.89295e-05
4 *153:A *153:B 0.000129285
5 *19:8 *153:B 0.000272857
6 *25:12 *153:B 0.000122801
*RES
1 *152:Y *153:B 14.67 
*END

*D_NET *27 0.000341703
*CONN
*I *154:A I *D sky130_fd_sc_hd__clkbuf_1
*I *153:X O *D sky130_fd_sc_hd__and2_1
*CAP
1 *154:A 0.000161972
2 *153:X 0.000161972
3 *154:A *166:A 1.77595e-05
*RES
1 *153:X *154:A 9.72 
*END

*D_NET *28 0.00262598
*CONN
*I *140:D I *D sky130_fd_sc_hd__or4_2
*I *152:A2 I *D sky130_fd_sc_hd__o21ai_1
*I *151:C I *D sky130_fd_sc_hd__or3_1
*I *156:A I *D sky130_fd_sc_hd__clkbuf_1
*I *150:B I *D sky130_fd_sc_hd__xor2_1
*I *157:X O *D sky130_fd_sc_hd__buf_1
*CAP
1 *140:D 6.83968e-05
2 *152:A2 0.000210419
3 *151:C 0
4 *156:A 0
5 *150:B 0
6 *157:X 0.000387305
7 *28:41 0.000319235
8 *28:32 8.58845e-05
9 *28:25 0.000204957
10 *28:14 0.000546797
11 *140:D *140:C 5.7385e-05
12 *140:D *151:A 4.77769e-05
13 *152:A2 *152:A1 0.000184077
14 *152:A2 *152:B1 6.78177e-05
15 *152:A2 *37:8 1.08056e-05
16 *152:A2 *37:10 2.26364e-05
17 *28:14 *36:12 0
18 *28:25 *150:A 8.52845e-05
19 *28:25 *36:23 5.69552e-05
20 *28:32 *140:C 1.14169e-05
21 *28:32 *36:23 6.60042e-05
22 *28:41 *140:C 2.01504e-05
23 *157:A *28:14 3.64998e-06
24 *158:A *28:14 0.000120098
25 *25:12 *140:D 4.89295e-05
*RES
1 *157:X *28:14 11.555 
2 *28:14 *150:B 1.6 
3 *28:14 *28:25 3.15 
4 *28:25 *156:A 1.6 
5 *28:25 *28:32 1.14 
6 *28:32 *151:C 1.6 
7 *28:32 *28:41 0.81 
8 *28:41 *152:A2 9.665 
9 *28:41 *140:D 3.085 
*END

*D_NET *29 0.000406982
*CONN
*I *165:A I *D sky130_fd_sc_hd__buf_2
*I *150:X O *D sky130_fd_sc_hd__xor2_1
*CAP
1 *165:A 0.000169591
2 *150:X 0.000169591
3 *165:A *172:A 3.7837e-05
4 out[0] *165:A 2.99619e-05
*RES
1 *150:X *165:A 10.08 
*END

*D_NET *30 0.000492652
*CONN
*I *166:A I *D sky130_fd_sc_hd__clkbuf_4
*I *154:X O *D sky130_fd_sc_hd__clkbuf_1
*CAP
1 *166:A 0.000237446
2 *154:X 0.000237446
3 *154:A *166:A 1.77595e-05
*RES
1 *154:X *166:A 10.425 
*END

*D_NET *31 0.000619993
*CONN
*I *167:A I *D sky130_fd_sc_hd__clkbuf_4
*I *155:Y O *D sky130_fd_sc_hd__a21boi_1
*CAP
1 *167:A 0.000284611
2 *155:Y 0.000284611
3 *153:A *167:A 5.07702e-05
*RES
1 *155:Y *167:A 11.67 
*END

*D_NET *32 0.000879216
*CONN
*I *168:A I *D sky130_fd_sc_hd__buf_2
*I *143:Y O *D sky130_fd_sc_hd__nor2_1
*CAP
1 *168:A 0.000378454
2 *143:Y 0.000378454
3 *143:B *168:A 7.1624e-05
4 *20:12 *168:A 5.06832e-05
*RES
1 *143:Y *168:A 13.365 
*END

*D_NET *33 0.000828752
*CONN
*I *169:A I *D sky130_fd_sc_hd__buf_2
*I *144:Y O *D sky130_fd_sc_hd__xnor2_1
*CAP
1 *169:A 0.000365068
2 *144:Y 0.000365068
3 *169:A *40:12 7.14241e-05
4 *162:A *169:A 4.1652e-06
5 *20:12 *169:A 2.30258e-05
*RES
1 *144:Y *169:A 13.05 
*END

*D_NET *34 0.000229663
*CONN
*I *170:A I *D sky130_fd_sc_hd__buf_2
*I *148:X O *D sky130_fd_sc_hd__clkbuf_1
*CAP
1 *170:A 0.000105934
2 *148:X 0.000105934
3 *148:A *170:A 1.77945e-05
*RES
1 *148:X *170:A 4.955 
*END

*D_NET *35 0.000208661
*CONN
*I *171:A I *D sky130_fd_sc_hd__buf_2
*I *149:X O *D sky130_fd_sc_hd__xor2_1
*CAP
1 *171:A 0.000104331
2 *149:X 0.000104331
*RES
1 *149:X *171:A 4.7 
*END

*D_NET *36 0.00208024
*CONN
*I *140:C I *D sky130_fd_sc_hd__or4_2
*I *151:B I *D sky130_fd_sc_hd__or3_1
*I *152:A1 I *D sky130_fd_sc_hd__o21ai_1
*I *150:A I *D sky130_fd_sc_hd__xor2_1
*I *158:X O *D sky130_fd_sc_hd__buf_1
*CAP
1 *140:C 0.000102775
2 *151:B 0
3 *152:A1 0.000122172
4 *150:A 3.52729e-05
5 *158:X 0.000302585
6 *36:25 0.000141561
7 *36:23 0.000265306
8 *36:12 0.000480999
9 *140:C *140:B 8.52883e-05
10 *140:C *151:A 4.77769e-05
11 *140:D *140:C 5.7385e-05
12 *152:A2 *152:A1 0.000184077
13 *158:A *36:12 0
14 *25:12 *140:C 1.52352e-05
15 *28:14 *36:12 0
16 *28:25 *150:A 8.52845e-05
17 *28:25 *36:23 5.69552e-05
18 *28:32 *140:C 1.14169e-05
19 *28:32 *36:23 6.60042e-05
20 *28:41 *140:C 2.01504e-05
*RES
1 *158:X *36:12 9.815 
2 *36:12 *150:A 2.395 
3 *36:12 *36:23 2.79 
4 *36:23 *36:25 0.36 
5 *36:25 *152:A1 8.03 
6 *36:25 *151:B 1.6 
7 *36:23 *140:C 4.135 
*END

*D_NET *37 0.00123936
*CONN
*I *151:A I *D sky130_fd_sc_hd__or3_1
*I *140:B I *D sky130_fd_sc_hd__or4_2
*I *152:B1 I *D sky130_fd_sc_hd__o21ai_1
*I *159:X O *D sky130_fd_sc_hd__clkbuf_1
*CAP
1 *151:A 9.89864e-06
2 *140:B 7.12896e-05
3 *152:B1 0.000135788
4 *159:X 0.000205964
5 *37:10 0.0002383
6 *37:8 0.000247085
7 *140:C *140:B 8.52883e-05
8 *140:C *151:A 4.77769e-05
9 *140:D *151:A 4.77769e-05
10 *152:A2 *152:B1 6.78177e-05
11 *152:A2 *37:8 1.08056e-05
12 *152:A2 *37:10 2.26364e-05
13 *153:B *152:B1 4.89295e-05
*RES
1 *159:X *37:8 7.02 
2 *37:8 *37:10 0.615 
3 *37:10 *152:B1 6.135 
4 *37:10 *140:B 4.755 
5 *37:8 *151:A 4.05 
*END

*D_NET *38 0.000818908
*CONN
*I *155:A1 I *D sky130_fd_sc_hd__a21boi_1
*I *140:A I *D sky130_fd_sc_hd__or4_2
*I *160:X O *D sky130_fd_sc_hd__clkbuf_1
*CAP
1 *155:A1 8.52801e-05
2 *140:A 5.64436e-05
3 *160:X 0.000184424
4 *38:10 0.000326148
5 *153:A *155:A1 2.86975e-05
6 *25:12 *140:A 0.000112081
7 *25:12 *155:A1 2.58336e-05
*RES
1 *160:X *38:10 8.51 
2 *38:10 *140:A 3.01 
3 *38:10 *155:A1 2.74 
*END

*D_NET *39 0.00358193
*CONN
*I *145:A1 I *D sky130_fd_sc_hd__o31a_1
*I *142:A I *D sky130_fd_sc_hd__and2_1
*I *141:A I *D sky130_fd_sc_hd__nor2_1
*I *146:A I *D sky130_fd_sc_hd__or4_1
*I *161:X O *D sky130_fd_sc_hd__buf_1
*CAP
1 *145:A1 0
2 *142:A 0.000434611
3 *141:A 0.000371867
4 *146:A 0
5 *161:X 0.000231813
6 *39:40 0.000583548
7 *39:16 0.000404509
8 *39:14 0.000413392
9 *142:A *144:A 0.000100884
10 *142:A *145:B1 3.88421e-05
11 *39:40 *145:B1 4.77719e-05
12 *39:40 *146:C 8.39647e-05
13 *39:40 *41:14 7.32549e-05
14 *141:B *141:A 0.00041935
15 *142:B *142:A 7.98477e-05
16 *143:A *142:A 7.08554e-05
17 *145:A3 *142:A 4.66108e-05
18 *147:A_N *39:40 4.77719e-05
19 *161:A *39:14 3.52601e-05
20 *20:12 *141:A 4.89295e-05
21 *23:10 *39:14 4.88478e-05
*RES
1 *161:X *39:14 9.17 
2 *39:14 *39:16 0.45 
3 *39:16 *146:A 1.6 
4 *39:16 *141:A 7.945 
5 *39:14 *39:40 7.03 
6 *39:40 *142:A 8.98 
7 *39:40 *145:A1 1.6 
*END

*D_NET *40 0.00224444
*CONN
*I *146:B I *D sky130_fd_sc_hd__or4_1
*I *145:A2 I *D sky130_fd_sc_hd__o31a_1
*I *144:A I *D sky130_fd_sc_hd__xnor2_1
*I *162:X O *D sky130_fd_sc_hd__buf_1
*CAP
1 *146:B 2.95036e-05
2 *145:A2 1.20605e-05
3 *144:A 0.000117079
4 *162:X 0.000210766
5 *40:18 0.000302898
6 *40:12 0.000414028
7 *144:A *145:B1 4.77719e-05
8 *145:A2 *145:B1 3.57349e-05
9 *141:B *146:B 1.79174e-05
10 *141:B *40:12 9.183e-05
11 *142:A *144:A 0.000100884
12 *142:B *144:A 0.000430267
13 *142:B *145:A2 4.66108e-05
14 *143:A *144:A 0.000121643
15 *169:A *40:12 7.14241e-05
16 *19:12 *40:18 4.04632e-05
17 *19:16 *40:18 0.00015356
*RES
1 *162:X *40:12 8.645 
2 *40:12 *40:18 7.165 
3 *40:18 *144:A 6.115 
4 *40:18 *145:A2 2.05 
5 *40:12 *146:B 2.05 
*END

*D_NET *41 0.00245179
*CONN
*I *146:C I *D sky130_fd_sc_hd__or4_1
*I *145:B1 I *D sky130_fd_sc_hd__o31a_1
*I *163:X O *D sky130_fd_sc_hd__clkbuf_1
*CAP
1 *146:C 9.39375e-05
2 *145:B1 6.95775e-05
3 *163:X 0.000704382
4 *41:14 0.000867897
5 *142:A *145:B1 3.88421e-05
6 *142:B *145:B1 2.10214e-05
7 *144:A *145:B1 4.77719e-05
8 *145:A2 *145:B1 3.57349e-05
9 *145:A3 *145:B1 4.66108e-05
10 *147:A_N *41:14 6.50956e-05
11 *149:B *41:14 0.000142912
12 *19:12 *146:C 1.46781e-05
13 *19:16 *146:C 8.19282e-05
14 *23:10 *41:14 1.64141e-05
15 *39:40 *145:B1 4.77719e-05
16 *39:40 *146:C 8.39647e-05
17 *39:40 *41:14 7.32549e-05
*RES
1 *163:X *41:14 15.785 
2 *41:14 *145:B1 3.445 
3 *41:14 *146:C 7.745 
*END

*D_NET *42 0.000768363
*CONN
*I *149:A I *D sky130_fd_sc_hd__xor2_1
*I *164:X O *D sky130_fd_sc_hd__clkbuf_1
*CAP
1 *149:A 0.000384182
2 *164:X 0.000384182
*RES
1 *164:X *149:A 11.895 
*END

*D_NET *43 0.000567839
*CONN
*I *172:A I *D sky130_fd_sc_hd__buf_2
*I *156:X O *D sky130_fd_sc_hd__clkbuf_1
*CAP
1 *172:A 0.000265001
2 *156:X 0.000265001
3 *165:A *172:A 3.7837e-05
*RES
1 *156:X *172:A 11.28 
*END
