*SPEF "ieee 1481-1999"
*DESIGN "ZeroToFiveCounter"
*DATE "18:54:52 Saturday May 24, 2025"
*VENDOR "The OpenROAD Project"
*PROGRAM "OpenROAD"
*VERSION "b16bda7e82721d10566ff7e2b68f1ff0be9f9e38"
*DESIGN_FLOW "NAME_SCOPE LOCAL" "PIN_CAP NONE"
*DIVIDER /
*DELIMITER :
*BUS_DELIMITER []
*T_UNIT 1 NS
*C_UNIT 1 PF
*R_UNIT 1 OHM
*L_UNIT 1 HENRY

*NAME_MAP
*3 clk
*4 rst
*5 seg[0]
*6 seg[1]
*7 seg[2]
*8 seg[3]
*9 seg[4]
*10 seg[5]
*11 seg[6]
*12 _000_
*13 _001_
*14 _002_
*15 _003_
*16 _004_
*17 _005_
*18 _006_
*19 _007_
*20 _008_
*21 _009_
*22 _010_
*23 _011_
*24 _012_
*25 _013_
*26 _014_
*27 _015_
*28 _016_
*29 _017_
*30 _018_
*31 _020_
*32 _021_
*33 _022_
*34 _023_
*35 _024_
*36 _025_
*37 _026_
*38 _027_
*39 _028_
*40 _029_
*41 _030_
*42 _031_
*43 _032_
*44 _033_
*45 _034_
*46 _035_
*47 _036_
*48 _037_
*49 _038_
*50 _039_
*51 _040_
*52 _041_
*53 _042_
*54 _043_
*55 _044_
*56 _045_
*57 _046_
*58 _047_
*59 _048_
*60 _049_
*61 _050_
*62 _051_
*63 _052_
*64 _053_
*65 _054_
*66 _055_
*67 _056_
*68 _057_
*69 _058_
*70 _059_
*71 _060_
*72 _061_
*73 _062_
*74 _063_
*75 _064_
*76 _065_
*77 _066_
*78 _067_
*79 _068_
*80 _069_
*81 _070_
*82 _071_
*83 _072_
*84 _073_
*85 _074_
*86 _075_
*87 _076_
*88 _077_
*89 _078_
*90 _079_
*91 _080_
*92 _081_
*93 _082_
*94 _083_
*95 _084_
*96 _085_
*97 _086_
*98 _087_
*99 _088_
*100 _089_
*101 _090_
*102 _091_
*103 _092_
*104 _093_
*105 _094_
*106 _095_
*107 _096_
*108 _097_
*109 _098_
*110 _099_
*111 _100_
*112 _101_
*113 _102_
*114 _103_
*115 _104_
*116 _105_
*117 _106_
*118 _107_
*119 _108_
*120 _109_
*121 _110_
*122 _111_
*123 _112_
*124 _113_
*125 _114_
*126 _115_
*127 _116_
*128 _117_
*129 _118_
*130 _119_
*131 _120_
*132 _121_
*133 _122_
*134 _123_
*135 _124_
*136 _125_
*137 _126_
*138 _127_
*139 _128_
*140 _129_
*141 _130_
*142 _131_
*143 _132_
*144 _133_
*145 _134_
*146 _135_
*147 _136_
*148 _137_
*149 _138_
*150 _139_
*151 _140_
*152 _141_
*153 _142_
*154 _143_
*155 _144_
*156 _145_
*157 _146_
*158 _147_
*159 _148_
*160 _149_
*161 _150_
*162 _151_
*163 _152_
*164 _153_
*165 _154_
*166 _155_
*167 _156_
*168 _157_
*169 _158_
*170 _159_
*171 _160_
*172 _161_
*173 _162_
*174 _163_
*175 _164_
*176 _165_
*177 _166_
*178 clknet_0_clk
*179 clknet_2_0__leaf_clk
*180 clknet_2_1__leaf_clk
*181 clknet_2_2__leaf_clk
*182 clknet_2_3__leaf_clk
*183 count\[0\]
*184 count\[10\]
*185 count\[11\]
*186 count\[12\]
*187 count\[13\]
*188 count\[14\]
*189 count\[15\]
*190 count\[16\]
*191 count\[17\]
*192 count\[18\]
*193 count\[19\]
*194 count\[1\]
*195 count\[20\]
*196 count\[21\]
*197 count\[22\]
*198 count\[23\]
*199 count\[24\]
*200 count\[25\]
*201 count\[26\]
*202 count\[27\]
*203 count\[2\]
*204 count\[3\]
*205 count\[4\]
*206 count\[5\]
*207 count\[6\]
*208 count\[7\]
*209 count\[8\]
*210 count\[9\]
*211 net1
*212 net10
*213 net11
*214 net12
*215 net13
*216 net14
*217 net2
*218 net3
*219 net4
*220 net5
*221 net6
*222 net7
*223 net8
*224 net9
*225 num\[0\]
*226 num\[1\]
*227 num\[2\]
*228 FILLER_0_0_102
*229 FILLER_0_0_110
*230 FILLER_0_0_113
*231 FILLER_0_0_125
*232 FILLER_0_0_15
*233 FILLER_0_0_27
*234 FILLER_0_0_29
*235 FILLER_0_0_3
*236 FILLER_0_0_41
*237 FILLER_0_0_53
*238 FILLER_0_0_57
*239 FILLER_0_0_69
*240 FILLER_0_0_81
*241 FILLER_0_0_85
*242 FILLER_0_0_90
*243 FILLER_0_10_110
*244 FILLER_0_10_131
*245 FILLER_0_10_18
*246 FILLER_0_10_26
*247 FILLER_0_10_29
*248 FILLER_0_10_38
*249 FILLER_0_10_45
*250 FILLER_0_10_53
*251 FILLER_0_10_6
*252 FILLER_0_10_74
*253 FILLER_0_10_82
*254 FILLER_0_10_90
*255 FILLER_0_11_124
*256 FILLER_0_11_132
*257 FILLER_0_11_15
*258 FILLER_0_11_23
*259 FILLER_0_11_3
*260 FILLER_0_11_57
*261 FILLER_0_11_79
*262 FILLER_0_11_83
*263 FILLER_0_11_87
*264 FILLER_0_11_99
*265 FILLER_0_12_104
*266 FILLER_0_12_11
*267 FILLER_0_12_116
*268 FILLER_0_12_128
*269 FILLER_0_12_132
*270 FILLER_0_12_29
*271 FILLER_0_12_3
*272 FILLER_0_12_36
*273 FILLER_0_12_44
*274 FILLER_0_12_62
*275 FILLER_0_12_74
*276 FILLER_0_12_92
*277 FILLER_0_13_102
*278 FILLER_0_13_113
*279 FILLER_0_13_128
*280 FILLER_0_13_3
*281 FILLER_0_13_35
*282 FILLER_0_13_48
*283 FILLER_0_13_68
*284 FILLER_0_14_29
*285 FILLER_0_14_3
*286 FILLER_0_14_44
*287 FILLER_0_14_65
*288 FILLER_0_14_78
*289 FILLER_0_15_102
*290 FILLER_0_15_106
*291 FILLER_0_15_111
*292 FILLER_0_15_24
*293 FILLER_0_15_28
*294 FILLER_0_15_3
*295 FILLER_0_15_47
*296 FILLER_0_15_57
*297 FILLER_0_15_63
*298 FILLER_0_15_90
*299 FILLER_0_16_109
*300 FILLER_0_16_15
*301 FILLER_0_16_26
*302 FILLER_0_16_3
*303 FILLER_0_16_52
*304 FILLER_0_16_64
*305 FILLER_0_16_76
*306 FILLER_0_16_83
*307 FILLER_0_16_85
*308 FILLER_0_16_97
*309 FILLER_0_17_109
*310 FILLER_0_17_113
*311 FILLER_0_17_15
*312 FILLER_0_17_27
*313 FILLER_0_17_3
*314 FILLER_0_17_52
*315 FILLER_0_17_57
*316 FILLER_0_17_69
*317 FILLER_0_17_97
*318 FILLER_0_18_103
*319 FILLER_0_18_125
*320 FILLER_0_18_15
*321 FILLER_0_18_27
*322 FILLER_0_18_29
*323 FILLER_0_18_3
*324 FILLER_0_18_36
*325 FILLER_0_18_46
*326 FILLER_0_18_90
*327 FILLER_0_18_98
*328 FILLER_0_19_116
*329 FILLER_0_19_127
*330 FILLER_0_19_15
*331 FILLER_0_19_3
*332 FILLER_0_19_55
*333 FILLER_0_19_90
*334 FILLER_0_1_101
*335 FILLER_0_1_109
*336 FILLER_0_1_113
*337 FILLER_0_1_125
*338 FILLER_0_1_15
*339 FILLER_0_1_3
*340 FILLER_0_1_38
*341 FILLER_0_1_43
*342 FILLER_0_1_55
*343 FILLER_0_1_60
*344 FILLER_0_1_67
*345 FILLER_0_1_75
*346 FILLER_0_20_124
*347 FILLER_0_20_128
*348 FILLER_0_20_15
*349 FILLER_0_20_29
*350 FILLER_0_20_3
*351 FILLER_0_20_56
*352 FILLER_0_20_60
*353 FILLER_0_20_88
*354 FILLER_0_21_102
*355 FILLER_0_21_113
*356 FILLER_0_21_125
*357 FILLER_0_21_15
*358 FILLER_0_21_23
*359 FILLER_0_21_3
*360 FILLER_0_21_37
*361 FILLER_0_21_44
*362 FILLER_0_21_57
*363 FILLER_0_21_82
*364 FILLER_0_21_94
*365 FILLER_0_22_109
*366 FILLER_0_22_113
*367 FILLER_0_22_125
*368 FILLER_0_22_15
*369 FILLER_0_22_27
*370 FILLER_0_22_29
*371 FILLER_0_22_3
*372 FILLER_0_22_41
*373 FILLER_0_22_53
*374 FILLER_0_22_57
*375 FILLER_0_22_69
*376 FILLER_0_22_81
*377 FILLER_0_22_85
*378 FILLER_0_22_97
*379 FILLER_0_2_105
*380 FILLER_0_2_114
*381 FILLER_0_2_118
*382 FILLER_0_2_122
*383 FILLER_0_2_130
*384 FILLER_0_2_15
*385 FILLER_0_2_21
*386 FILLER_0_2_3
*387 FILLER_0_2_49
*388 FILLER_0_2_71
*389 FILLER_0_2_77
*390 FILLER_0_3_101
*391 FILLER_0_3_15
*392 FILLER_0_3_23
*393 FILLER_0_3_3
*394 FILLER_0_3_42
*395 FILLER_0_3_48
*396 FILLER_0_3_77
*397 FILLER_0_4_101
*398 FILLER_0_4_113
*399 FILLER_0_4_125
*400 FILLER_0_4_27
*401 FILLER_0_4_29
*402 FILLER_0_4_3
*403 FILLER_0_4_39
*404 FILLER_0_4_77
*405 FILLER_0_4_83
*406 FILLER_0_4_85
*407 FILLER_0_5_109
*408 FILLER_0_5_11
*409 FILLER_0_5_113
*410 FILLER_0_5_119
*411 FILLER_0_5_123
*412 FILLER_0_5_131
*413 FILLER_0_5_16
*414 FILLER_0_5_28
*415 FILLER_0_5_3
*416 FILLER_0_5_36
*417 FILLER_0_5_66
*418 FILLER_0_5_78
*419 FILLER_0_5_82
*420 FILLER_0_6_105
*421 FILLER_0_6_130
*422 FILLER_0_6_15
*423 FILLER_0_6_19
*424 FILLER_0_6_27
*425 FILLER_0_6_3
*426 FILLER_0_6_59
*427 FILLER_0_6_71
*428 FILLER_0_7_118
*429 FILLER_0_7_130
*430 FILLER_0_7_33
*431 FILLER_0_7_45
*432 FILLER_0_7_55
*433 FILLER_0_7_62
*434 FILLER_0_7_74
*435 FILLER_0_7_86
*436 FILLER_0_7_98
*437 FILLER_0_8_103
*438 FILLER_0_8_115
*439 FILLER_0_8_124
*440 FILLER_0_8_132
*441 FILLER_0_8_26
*442 FILLER_0_8_29
*443 FILLER_0_8_3
*444 FILLER_0_8_42
*445 FILLER_0_8_46
*446 FILLER_0_8_81
*447 FILLER_0_8_91
*448 FILLER_0_9_111
*449 FILLER_0_9_3
*450 FILLER_0_9_41
*451 FILLER_0_9_53
*452 FILLER_0_9_57
*453 FILLER_0_9_70
*454 FILLER_0_9_97
*455 PHY_EDGE_ROW_0_Left_23
*456 PHY_EDGE_ROW_0_Right_0
*457 PHY_EDGE_ROW_10_Left_33
*458 PHY_EDGE_ROW_10_Right_10
*459 PHY_EDGE_ROW_11_Left_34
*460 PHY_EDGE_ROW_11_Right_11
*461 PHY_EDGE_ROW_12_Left_35
*462 PHY_EDGE_ROW_12_Right_12
*463 PHY_EDGE_ROW_13_Left_36
*464 PHY_EDGE_ROW_13_Right_13
*465 PHY_EDGE_ROW_14_Left_37
*466 PHY_EDGE_ROW_14_Right_14
*467 PHY_EDGE_ROW_15_Left_38
*468 PHY_EDGE_ROW_15_Right_15
*469 PHY_EDGE_ROW_16_Left_39
*470 PHY_EDGE_ROW_16_Right_16
*471 PHY_EDGE_ROW_17_Left_40
*472 PHY_EDGE_ROW_17_Right_17
*473 PHY_EDGE_ROW_18_Left_41
*474 PHY_EDGE_ROW_18_Right_18
*475 PHY_EDGE_ROW_19_Left_42
*476 PHY_EDGE_ROW_19_Right_19
*477 PHY_EDGE_ROW_1_Left_24
*478 PHY_EDGE_ROW_1_Right_1
*479 PHY_EDGE_ROW_20_Left_43
*480 PHY_EDGE_ROW_20_Right_20
*481 PHY_EDGE_ROW_21_Left_44
*482 PHY_EDGE_ROW_21_Right_21
*483 PHY_EDGE_ROW_22_Left_45
*484 PHY_EDGE_ROW_22_Right_22
*485 PHY_EDGE_ROW_2_Left_25
*486 PHY_EDGE_ROW_2_Right_2
*487 PHY_EDGE_ROW_3_Left_26
*488 PHY_EDGE_ROW_3_Right_3
*489 PHY_EDGE_ROW_4_Left_27
*490 PHY_EDGE_ROW_4_Right_4
*491 PHY_EDGE_ROW_5_Left_28
*492 PHY_EDGE_ROW_5_Right_5
*493 PHY_EDGE_ROW_6_Left_29
*494 PHY_EDGE_ROW_6_Right_6
*495 PHY_EDGE_ROW_7_Left_30
*496 PHY_EDGE_ROW_7_Right_7
*497 PHY_EDGE_ROW_8_Left_31
*498 PHY_EDGE_ROW_8_Right_8
*499 PHY_EDGE_ROW_9_Left_32
*500 PHY_EDGE_ROW_9_Right_9
*501 TAP_TAPCELL_ROW_0_46
*502 TAP_TAPCELL_ROW_0_47
*503 TAP_TAPCELL_ROW_0_48
*504 TAP_TAPCELL_ROW_0_49
*505 TAP_TAPCELL_ROW_10_68
*506 TAP_TAPCELL_ROW_10_69
*507 TAP_TAPCELL_ROW_11_70
*508 TAP_TAPCELL_ROW_11_71
*509 TAP_TAPCELL_ROW_12_72
*510 TAP_TAPCELL_ROW_12_73
*511 TAP_TAPCELL_ROW_13_74
*512 TAP_TAPCELL_ROW_13_75
*513 TAP_TAPCELL_ROW_14_76
*514 TAP_TAPCELL_ROW_14_77
*515 TAP_TAPCELL_ROW_15_78
*516 TAP_TAPCELL_ROW_15_79
*517 TAP_TAPCELL_ROW_16_80
*518 TAP_TAPCELL_ROW_16_81
*519 TAP_TAPCELL_ROW_17_82
*520 TAP_TAPCELL_ROW_17_83
*521 TAP_TAPCELL_ROW_18_84
*522 TAP_TAPCELL_ROW_18_85
*523 TAP_TAPCELL_ROW_19_86
*524 TAP_TAPCELL_ROW_19_87
*525 TAP_TAPCELL_ROW_1_50
*526 TAP_TAPCELL_ROW_1_51
*527 TAP_TAPCELL_ROW_20_88
*528 TAP_TAPCELL_ROW_20_89
*529 TAP_TAPCELL_ROW_21_90
*530 TAP_TAPCELL_ROW_21_91
*531 TAP_TAPCELL_ROW_22_92
*532 TAP_TAPCELL_ROW_22_93
*533 TAP_TAPCELL_ROW_22_94
*534 TAP_TAPCELL_ROW_22_95
*535 TAP_TAPCELL_ROW_2_52
*536 TAP_TAPCELL_ROW_2_53
*537 TAP_TAPCELL_ROW_3_54
*538 TAP_TAPCELL_ROW_3_55
*539 TAP_TAPCELL_ROW_4_56
*540 TAP_TAPCELL_ROW_4_57
*541 TAP_TAPCELL_ROW_5_58
*542 TAP_TAPCELL_ROW_5_59
*543 TAP_TAPCELL_ROW_6_60
*544 TAP_TAPCELL_ROW_6_61
*545 TAP_TAPCELL_ROW_7_62
*546 TAP_TAPCELL_ROW_7_63
*547 TAP_TAPCELL_ROW_8_64
*548 TAP_TAPCELL_ROW_8_65
*549 TAP_TAPCELL_ROW_9_66
*550 TAP_TAPCELL_ROW_9_67
*551 _167_
*552 _168_
*553 _169_
*554 _170_
*555 _171_
*556 _172_
*557 _173_
*558 _174_
*559 _175_
*560 _176_
*561 _177_
*562 _178_
*563 _179_
*564 _180_
*565 _181_
*566 _182_
*567 _183_
*568 _184_
*569 _185_
*570 _186_
*571 _187_
*572 _188_
*573 _189_
*574 _190_
*575 _191_
*576 _192_
*577 _193_
*578 _194_
*579 _195_
*580 _196_
*581 _197_
*582 _198_
*583 _199_
*584 _200_
*585 _201_
*586 _202_
*587 _203_
*588 _204_
*589 _205_
*590 _206_
*591 _207_
*592 _208_
*593 _209_
*594 _210_
*595 _211_
*596 _212_
*597 _213_
*598 _214_
*599 _215_
*600 _216_
*601 _217_
*602 _218_
*603 _219_
*604 _220_
*605 _221_
*606 _222_
*607 _223_
*608 _224_
*609 _225_
*610 _226_
*611 _227_
*612 _228_
*613 _229_
*614 _230_
*615 _231_
*616 _232_
*617 _233_
*618 _234_
*619 _235_
*620 _236_
*621 _237_
*622 _238_
*623 _239_
*624 _240_
*625 _241_
*626 _242_
*627 _243_
*628 _244_
*629 _245_
*630 _246_
*631 _247_
*632 _248_
*633 _249_
*634 _250_
*635 _251_
*636 _252_
*637 _253_
*638 _254_
*639 _255_
*640 _256_
*641 _257_
*642 _258_
*643 _259_
*644 _260_
*645 _261_
*646 _262_
*647 _263_
*648 _264_
*649 _265_
*650 _266_
*651 _267_
*652 _268_
*653 _269_
*654 _270_
*655 _271_
*656 _272_
*657 _273_
*658 _274_
*659 _275_
*660 _276_
*661 _277_
*662 _278_
*663 _279_
*664 _280_
*665 _281_
*666 _282_
*667 _283_
*668 _284_
*669 _285_
*670 _286_
*671 _287_
*672 _288_
*673 _289_
*674 _290_
*675 _291_
*676 _292_
*677 _293_
*678 _294_
*679 _295_
*680 _296_
*681 _297_
*682 _298_
*683 _299_
*684 _300_
*685 _301_
*686 _302_
*687 _303_
*688 _304_
*689 _305_
*690 _306_
*691 _307_
*692 _308_
*693 _309_
*694 _310_
*695 _311_
*696 _312_
*697 _313_
*698 _314_
*699 _315_
*700 _316_
*701 _317_
*702 _318_
*703 _319_
*704 _320_
*705 _321_
*706 _322_
*707 _323_
*708 _324_
*709 _325_
*710 _326_
*711 _327_
*712 _328_
*713 _329_
*714 _330_
*715 _331_
*716 _332_
*717 _333_
*718 _334_
*719 _335_
*720 _336_
*721 _337_
*722 _338_
*723 _339_
*724 _340_
*725 _341_
*726 _342_
*727 _343_
*728 _344_
*729 _345_
*730 _346_
*731 _347_
*732 _348_
*733 _349_
*734 _350_
*735 _351_
*736 _352_
*737 _353_
*738 _354_
*739 _355_
*740 _356_
*741 _357_
*742 _358_
*743 _359_
*744 _360_
*745 _361_
*746 _362_
*747 _363_
*748 _364_
*749 _365_
*750 _366_
*751 _367_
*752 _368_
*753 _369_
*754 _369__9
*755 _371_
*756 clkbuf_0_clk
*757 clkbuf_2_0__f_clk
*758 clkbuf_2_1__f_clk
*759 clkbuf_2_2__f_clk
*760 clkbuf_2_3__f_clk
*761 clkload0
*762 clkload1
*763 clkload2
*764 hold1
*765 hold2
*766 hold3
*767 hold4
*768 hold5
*769 input1
*770 output2
*771 output3
*772 output4
*773 output5
*774 output6
*775 output7
*776 output8

*PORTS
clk I
rst I
seg[0] O
seg[1] O
seg[2] O
seg[3] O
seg[4] O
seg[5] O
seg[6] O

*D_NET *3 0.00873352
*CONN
*P clk I
*I *756:A I *D sky130_fd_sc_hd__clkbuf_16
*CAP
1 clk 0.00408773
2 *756:A 0.000122168
3 *3:21 0.0042099
4 *756:A *202:10 7.53384e-06
5 *3:21 *569:B 0
6 *3:21 *69:10 1.01436e-05
7 *3:21 *75:18 0
8 *3:21 *98:80 0.000296043
*RES
1 clk *3:21 38.2235 
2 *3:21 *756:A 40.0507 
*END

*D_NET *4 0.000675879
*CONN
*P rst I
*I *769:A I *D sky130_fd_sc_hd__buf_1
*CAP
1 rst 0.000337939
2 *769:A 0
3 *4:17 0.000337939
*RES
1 rst *4:17 27.5105 
2 *4:17 *769:A 23 
*END

*D_NET *5 0.000902847
*CONN
*P seg[0] O
*I *770:X O *D sky130_fd_sc_hd__buf_2
*CAP
1 seg[0] 0.000357056
2 *770:X 0.000357056
3 seg[0] seg[1] 8.97484e-05
4 seg[0] seg[3] 7.90864e-05
5 seg[0] *217:10 1.05658e-05
6 seg[0] *226:58 9.33529e-06
*RES
1 *770:X seg[0] 47.5941 
*END

*D_NET *6 0.000669173
*CONN
*P seg[1] O
*I *771:X O *D sky130_fd_sc_hd__buf_2
*CAP
1 seg[1] 0.000224406
2 *771:X 0.000224406
3 seg[1] seg[6] 8.97484e-05
4 seg[1] *688:B 0
5 seg[1] *218:10 4.08641e-05
6 seg[0] seg[1] 8.97484e-05
*RES
1 *771:X seg[1] 48.5734 
*END

*D_NET *7 0.000540089
*CONN
*P seg[2] O
*I *772:X O *D sky130_fd_sc_hd__buf_2
*CAP
1 seg[2] 0.000195106
2 *772:X 0.000195106
3 seg[2] seg[3] 6.89196e-05
4 seg[2] seg[5] 6.89196e-05
5 seg[2] *219:10 1.20381e-05
*RES
1 *772:X seg[2] 47.1648 
*END

*D_NET *8 0.000983107
*CONN
*P seg[3] O
*I *773:X O *D sky130_fd_sc_hd__buf_2
*CAP
1 seg[3] 0.00030033
2 *773:X 0.00030033
3 seg[3] *773:A 0.00023444
4 seg[0] seg[3] 7.90864e-05
5 seg[2] seg[3] 6.89196e-05
*RES
1 *773:X seg[3] 49.9819 
*END

*D_NET *9 0.000702746
*CONN
*P seg[4] O
*I *774:X O *D sky130_fd_sc_hd__buf_2
*CAP
1 seg[4] 0.000288509
2 *774:X 0.000288509
3 seg[4] seg[6] 7.17325e-05
4 seg[4] *221:10 5.39956e-05
*RES
1 *774:X seg[4] 48.9255 
*END

*D_NET *10 0.000571451
*CONN
*P seg[5] O
*I *775:X O *D sky130_fd_sc_hd__buf_2
*CAP
1 seg[5] 0.000251266
2 *775:X 0.000251266
3 seg[5] *226:12 0
4 seg[2] seg[5] 6.89196e-05
*RES
1 *775:X seg[5] 47.8691 
*END

*D_NET *11 0.000593884
*CONN
*P seg[6] O
*I *776:X O *D sky130_fd_sc_hd__buf_2
*CAP
1 seg[6] 0.000216202
2 *776:X 0.000216202
3 seg[1] seg[6] 8.97484e-05
4 seg[4] seg[6] 7.17325e-05
*RES
1 *776:X seg[6] 47.8691 
*END

*D_NET *12 0.000304268
*CONN
*I *726:D I *D sky130_fd_sc_hd__dfrtp_1
*I *581:X O *D sky130_fd_sc_hd__clkbuf_1
*CAP
1 *726:D 0
2 *581:X 0.000141168
3 *12:10 0.000141168
4 *12:10 *590:A 6.17437e-06
5 *12:10 *726:CLK 0
6 *12:10 *180:22 1.57571e-05
*RES
1 *581:X *12:10 40.175 
2 *12:10 *726:D 38 
*END

*D_NET *13 0.00108307
*CONN
*I *736:D I *D sky130_fd_sc_hd__dfrtp_1
*I *619:X O *D sky130_fd_sc_hd__clkbuf_1
*CAP
1 *736:D 0
2 *619:X 0.000303984
3 *13:10 0.000303984
4 *13:10 *618:B 5.3304e-05
5 *13:10 *54:10 5.50049e-05
6 *13:10 *101:48 7.23724e-05
7 *13:10 *182:66 6.91499e-05
8 *13:10 *182:70 0.000225269
*RES
1 *619:X *13:10 28.9295 
2 *13:10 *736:D 23 
*END

*D_NET *14 0.000322438
*CONN
*I *737:D I *D sky130_fd_sc_hd__dfrtp_1
*I *623:X O *D sky130_fd_sc_hd__clkbuf_1
*CAP
1 *737:D 0.000144892
2 *623:X 0.000144892
3 *737:D *623:A 1.35999e-05
4 *737:D *176:118 1.9054e-05
*RES
1 *623:X *737:D 48.5479 
*END

*D_NET *15 0.00158581
*CONN
*I *738:D I *D sky130_fd_sc_hd__dfrtp_1
*I *629:X O *D sky130_fd_sc_hd__clkbuf_1
*CAP
1 *738:D 3.1794e-05
2 *629:X 0.00038453
3 *15:10 0.000416324
4 *738:D *738:CLK 7.87147e-05
5 *738:D *134:16 0.000145034
6 *15:10 *709:A 0.0001129
7 *15:10 *133:67 3.04497e-06
8 *15:10 *135:12 0
9 *15:10 *176:97 0.000176541
10 *15:10 *176:118 0.00023693
*RES
1 *629:X *15:10 45.0014 
2 *15:10 *738:D 39.5743 
*END

*D_NET *16 0.000792692
*CONN
*I *739:D I *D sky130_fd_sc_hd__dfrtp_1
*I *633:X O *D sky130_fd_sc_hd__clkbuf_1
*CAP
1 *739:D 9.35069e-05
2 *633:X 0.000108411
3 *16:8 0.000201918
4 *739:D *632:C 0.000167498
5 *739:D *138:10 0.00019991
6 *16:8 *138:10 2.14486e-05
*RES
1 *633:X *16:8 39.9057 
2 *16:8 *739:D 41.9564 
*END

*D_NET *17 0.000718635
*CONN
*I *740:D I *D sky130_fd_sc_hd__dfrtp_1
*I *636:X O *D sky130_fd_sc_hd__o211a_1
*CAP
1 *740:D 7.56722e-05
2 *636:X 0.000261682
3 *17:8 0.000337354
4 *740:D *630:A 4.39278e-05
5 *17:8 *739:CLK 0
*RES
1 *636:X *17:8 42.3707 
2 *17:8 *740:D 39.5743 
*END

*D_NET *18 0.000378273
*CONN
*I *741:D I *D sky130_fd_sc_hd__dfrtp_1
*I *641:X O *D sky130_fd_sc_hd__clkbuf_1
*CAP
1 *741:D 0
2 *641:X 0.000151498
3 *18:10 0.000151498
4 *18:10 *133:32 3.71369e-05
5 *18:10 *144:10 0
6 *18:10 *181:80 3.81391e-05
*RES
1 *641:X *18:10 40.6514 
2 *18:10 *741:D 38 
*END

*D_NET *19 0.000402959
*CONN
*I *742:D I *D sky130_fd_sc_hd__dfrtp_1
*I *645:X O *D sky130_fd_sc_hd__clkbuf_1
*CAP
1 *742:D 0.000130204
2 *645:X 0.000130204
3 *742:D *645:A 0.000142551
*RES
1 *645:X *742:D 47.9523 
*END

*D_NET *20 0.000580589
*CONN
*I *743:D I *D sky130_fd_sc_hd__dfrtp_2
*I *649:X O *D sky130_fd_sc_hd__clkbuf_1
*CAP
1 *743:D 0
2 *649:X 0.00022056
3 *20:10 0.00022056
4 *20:10 *649:A 5.40337e-05
5 *20:10 *150:8 5.12605e-05
6 *20:10 *177:14 3.41749e-05
*RES
1 *649:X *20:10 41.6043 
2 *20:10 *743:D 38 
*END

*D_NET *21 0.00170288
*CONN
*I *744:D I *D sky130_fd_sc_hd__dfrtp_1
*I *651:X O *D sky130_fd_sc_hd__o211a_1
*CAP
1 *744:D 0.000110978
2 *651:X 0.00040758
3 *21:10 0.000518559
4 *21:10 *651:A1 5.79559e-05
5 *21:10 *651:B1 1.71761e-05
6 *21:10 *142:82 9.41704e-05
7 *21:10 *148:10 7.02428e-05
8 *21:10 *191:10 0.000193178
9 *21:10 *192:29 0.000233044
*RES
1 *651:X *21:10 46.4721 
2 *21:10 *744:D 40.0507 
*END

*D_NET *22 0.00078124
*CONN
*I *745:D I *D sky130_fd_sc_hd__dfrtp_1
*I *656:X O *D sky130_fd_sc_hd__clkbuf_1
*CAP
1 *745:D 0.000219521
2 *656:X 7.79846e-05
3 *22:8 0.000297505
4 *745:D *179:14 0.000186229
*RES
1 *656:X *22:8 39.2014 
2 *22:8 *745:D 41.5473 
*END

*D_NET *23 0.000489556
*CONN
*I *727:D I *D sky130_fd_sc_hd__dfrtp_1
*I *586:X O *D sky130_fd_sc_hd__clkbuf_1
*CAP
1 *727:D 0
2 *586:X 0.000244778
3 *23:10 0.000244778
*RES
1 *586:X *23:10 41.48 
2 *23:10 *727:D 38 
*END

*D_NET *24 0.000710065
*CONN
*I *746:D I *D sky130_fd_sc_hd__dfrtp_1
*I *660:X O *D sky130_fd_sc_hd__clkbuf_1
*CAP
1 *746:D 0
2 *660:X 0.000195432
3 *24:12 0.000195432
4 *24:12 *715:A 5.56356e-05
5 *24:12 *62:10 0.000102389
6 *24:12 *177:24 0.000144
7 *24:12 *179:22 1.71761e-05
*RES
1 *660:X *24:12 42.4536 
2 *24:12 *746:D 38 
*END

*D_NET *25 0.000682909
*CONN
*I *747:D I *D sky130_fd_sc_hd__dfrtp_1
*I *664:X O *D sky130_fd_sc_hd__clkbuf_1
*CAP
1 *747:D 0
2 *664:X 0.000318728
3 *25:10 0.000318728
4 *25:10 *747:CLK 4.54525e-05
*RES
1 *664:X *25:10 42.9093 
2 *25:10 *747:D 38 
*END

*D_NET *26 0.000686954
*CONN
*I *748:D I *D sky130_fd_sc_hd__dfrtp_1
*I *668:X O *D sky130_fd_sc_hd__clkbuf_1
*CAP
1 *748:D 9.65102e-05
2 *668:X 0.000246967
3 *26:8 0.000343477
*RES
1 *668:X *26:8 42.3707 
2 *26:8 *748:D 39.5743 
*END

*D_NET *27 0.000826155
*CONN
*I *749:D I *D sky130_fd_sc_hd__dfrtp_1
*I *671:X O *D sky130_fd_sc_hd__o211a_1
*CAP
1 *749:D 0.000184124
2 *671:X 0.000113514
3 *27:10 0.000297638
4 *749:D *179:58 0.000127542
5 *27:10 *717:A 1.75792e-05
6 *27:10 *64:8 8.57577e-05
*RES
1 *671:X *27:10 39.8229 
2 *27:10 *749:D 40.5945 
*END

*D_NET *28 0.000207335
*CONN
*I *750:D I *D sky130_fd_sc_hd__dfrtp_1
*I *675:X O *D sky130_fd_sc_hd__clkbuf_1
*CAP
1 *750:D 0
2 *675:X 0.000103667
3 *28:8 0.000103667
4 *28:8 *66:10 0
5 *28:8 *177:89 0
*RES
1 *675:X *28:8 39.9057 
2 *28:8 *750:D 38 
*END

*D_NET *29 0.000665557
*CONN
*I *751:D I *D sky130_fd_sc_hd__dfrtp_1
*I *677:X O *D sky130_fd_sc_hd__o211a_1
*CAP
1 *751:D 0
2 *677:X 0.000114989
3 *29:6 0.000114989
4 *29:6 *751:CLK 0.000102389
5 *29:6 *98:57 0.000100486
6 *29:6 *181:51 1.61385e-05
7 *29:6 *181:53 4.44127e-05
8 *29:6 *200:16 0.000172154
*RES
1 *677:X *29:6 27.4329 
2 *29:6 *751:D 23 
*END

*D_NET *30 0.0017051
*CONN
*I *752:D I *D sky130_fd_sc_hd__dfrtp_1
*I *678:Y O *D sky130_fd_sc_hd__a21boi_1
*CAP
1 *752:D 0.000524205
2 *678:Y 0.000124333
3 *30:8 0.000648538
4 *752:D *201:8 0.000187363
5 *30:8 *753:CLK 6.437e-05
6 *30:8 *181:10 0.000156295
*RES
1 *678:Y *30:8 40.9621 
2 *30:8 *752:D 47.6736 
*END

*D_NET *31 0.000402744
*CONN
*I *728:D I *D sky130_fd_sc_hd__dfrtp_1
*I *590:X O *D sky130_fd_sc_hd__clkbuf_1
*CAP
1 *728:D 0.000135784
2 *590:X 0.000135784
3 *728:D *180:18 7.42815e-05
4 *728:D *180:22 5.68958e-05
*RES
1 *590:X *728:D 49.0243 
*END

*D_NET *32 0.000618554
*CONN
*I *729:D I *D sky130_fd_sc_hd__dfrtp_1
*I *593:X O *D sky130_fd_sc_hd__clkbuf_1
*CAP
1 *729:D 0
2 *593:X 0.000165039
3 *32:10 0.000165039
4 *32:10 *758:A 0.000112538
5 *32:10 *45:10 2.93845e-05
6 *32:10 *98:167 0.000111184
7 *32:10 *175:18 2.07484e-05
8 *32:10 *175:29 1.46205e-05
*RES
1 *593:X *32:10 41.1279 
2 *32:10 *729:D 38 
*END

*D_NET *33 0.000374428
*CONN
*I *730:D I *D sky130_fd_sc_hd__dfrtp_1
*I *597:X O *D sky130_fd_sc_hd__clkbuf_1
*CAP
1 *730:D 0.000177473
2 *597:X 0.000177473
3 *730:D *180:86 1.94812e-05
*RES
1 *597:X *730:D 48.5479 
*END

*D_NET *34 0.000430391
*CONN
*I *731:D I *D sky130_fd_sc_hd__dfrtp_1
*I *601:X O *D sky130_fd_sc_hd__clkbuf_1
*CAP
1 *731:D 0
2 *601:X 0.000202229
3 *34:10 0.000202229
4 *34:10 *599:A1 4.49358e-06
5 *34:10 *206:18 2.14404e-05
*RES
1 *601:X *34:10 41.0036 
2 *34:10 *731:D 38 
*END

*D_NET *35 0.000569925
*CONN
*I *732:D I *D sky130_fd_sc_hd__dfrtp_1
*I *605:X O *D sky130_fd_sc_hd__clkbuf_1
*CAP
1 *732:D 2.84247e-05
2 *605:X 0.000231988
3 *35:14 0.000260413
4 *732:D *207:8 2.10502e-05
5 *35:14 *605:A 1.92253e-05
6 *35:14 *175:104 8.82289e-06
7 *35:14 *207:32 0
*RES
1 *605:X *35:14 41.77 
2 *35:14 *732:D 38.6214 
*END

*D_NET *36 0.000878832
*CONN
*I *733:D I *D sky130_fd_sc_hd__dfrtp_1
*I *608:X O *D sky130_fd_sc_hd__clkbuf_1
*CAP
1 *733:D 0
2 *608:X 0.000219208
3 *36:10 0.000219208
4 *36:10 *98:167 0.000232541
5 *36:10 *175:18 6.68378e-05
6 *36:10 *176:23 0.000141038
*RES
1 *608:X *36:10 42.4329 
2 *36:10 *733:D 38 
*END

*D_NET *37 0.00141498
*CONN
*I *734:D I *D sky130_fd_sc_hd__dfrtp_1
*I *611:X O *D sky130_fd_sc_hd__clkbuf_1
*CAP
1 *734:D 0.000287792
2 *611:X 0.000175522
3 *37:10 0.000463314
4 *734:D *86:48 6.17437e-06
5 *734:D *91:42 0.000343972
6 *37:10 *702:A 3.7122e-06
7 *37:10 *176:55 0.00013449
*RES
1 *611:X *37:10 40.5271 
2 *37:10 *734:D 44.815 
*END

*D_NET *38 0.000354883
*CONN
*I *735:D I *D sky130_fd_sc_hd__dfrtp_1
*I *615:X O *D sky130_fd_sc_hd__clkbuf_1
*CAP
1 *735:D 0.000128629
2 *615:X 0.000128629
3 *735:D *91:8 0
4 *735:D *91:25 9.76261e-05
*RES
1 *615:X *735:D 48.5479 
*END

*D_NET *39 0.00127291
*CONN
*I *723:RESET_B I *D sky130_fd_sc_hd__dfrtp_1
*I *690:Y O *D sky130_fd_sc_hd__inv_2
*CAP
1 *723:RESET_B 4.05846e-05
2 *690:Y 0.000458753
3 *39:14 0.000499337
4 *39:14 *688:A 5.56356e-05
5 *39:14 *688:B 7.43845e-05
6 *39:14 *690:A 6.72982e-05
7 *39:14 *725:RESET_B 5.67058e-05
8 *39:14 *225:12 1.7403e-05
9 *39:14 *227:8 2.80924e-06
*RES
1 *690:Y *39:14 46.0579 
2 *39:14 *723:RESET_B 15.5489 
*END

*D_NET *40 0.000230521
*CONN
*I *724:RESET_B I *D sky130_fd_sc_hd__dfrtp_2
*I *691:Y O *D sky130_fd_sc_hd__inv_2
*CAP
1 *724:RESET_B 0
2 *691:Y 8.07139e-05
3 *40:8 8.07139e-05
4 *40:8 *175:115 6.90927e-05
*RES
1 *691:Y *40:8 39.9057 
2 *40:8 *724:RESET_B 15 
*END

*D_NET *41 0.000422581
*CONN
*I *725:RESET_B I *D sky130_fd_sc_hd__dfrtp_2
*I *692:Y O *D sky130_fd_sc_hd__inv_2
*CAP
1 *725:RESET_B 0.000154327
2 *692:Y 0.000154327
3 *725:RESET_B *227:8 5.72217e-05
4 *39:14 *725:RESET_B 5.67058e-05
*RES
1 *692:Y *725:RESET_B 26.4075 
*END

*D_NET *42 0.000367793
*CONN
*I *726:RESET_B I *D sky130_fd_sc_hd__dfrtp_1
*I *693:Y O *D sky130_fd_sc_hd__inv_2
*CAP
1 *726:RESET_B 9.28867e-05
2 *693:Y 9.28867e-05
3 *726:RESET_B *175:53 0.000125313
4 *726:RESET_B *183:10 5.67058e-05
*RES
1 *693:Y *726:RESET_B 25.4546 
*END

*D_NET *43 0.000532991
*CONN
*I *727:RESET_B I *D sky130_fd_sc_hd__dfrtp_1
*I *694:Y O *D sky130_fd_sc_hd__inv_2
*CAP
1 *727:RESET_B 0
2 *694:Y 0.000160331
3 *43:10 0.000160331
4 *43:10 *694:A 2.07484e-05
5 *43:10 *175:37 0.000191581
*RES
1 *694:Y *43:10 41.2314 
2 *43:10 *727:RESET_B 15 
*END

*D_NET *44 0.00105264
*CONN
*I *728:RESET_B I *D sky130_fd_sc_hd__dfrtp_1
*I *695:Y O *D sky130_fd_sc_hd__inv_2
*CAP
1 *728:RESET_B 0
2 *695:Y 0.000497545
3 *44:10 0.000497545
4 *44:10 *183:10 5.75502e-05
*RES
1 *695:Y *44:10 45.3743 
2 *44:10 *728:RESET_B 15 
*END

*D_NET *45 0.000941879
*CONN
*I *729:RESET_B I *D sky130_fd_sc_hd__dfrtp_1
*I *696:Y O *D sky130_fd_sc_hd__inv_2
*CAP
1 *729:RESET_B 0
2 *696:Y 0.000211561
3 *45:10 0.000211561
4 *45:10 *758:A 0
5 *45:10 *87:10 0.000169683
6 *45:10 *175:29 0.000319689
7 *32:10 *45:10 2.93845e-05
*RES
1 *696:Y *45:10 43.7379 
2 *45:10 *729:RESET_B 15 
*END

*D_NET *46 0.000244246
*CONN
*I *730:RESET_B I *D sky130_fd_sc_hd__dfrtp_1
*I *697:Y O *D sky130_fd_sc_hd__inv_2
*CAP
1 *730:RESET_B 0
2 *697:Y 6.48404e-05
3 *46:8 6.48404e-05
4 *46:8 *175:78 0.000114566
*RES
1 *697:Y *46:8 39.5536 
2 *46:8 *730:RESET_B 15 
*END

*D_NET *47 0.00049131
*CONN
*I *731:RESET_B I *D sky130_fd_sc_hd__dfrtp_1
*I *698:Y O *D sky130_fd_sc_hd__inv_2
*CAP
1 *731:RESET_B 0
2 *698:Y 0.0001214
3 *47:8 0.0001214
4 *47:8 *175:89 0.00024851
*RES
1 *698:Y *47:8 41.3143 
2 *47:8 *731:RESET_B 15 
*END

*D_NET *48 0.000513288
*CONN
*I *732:RESET_B I *D sky130_fd_sc_hd__dfrtp_1
*I *699:Y O *D sky130_fd_sc_hd__inv_2
*CAP
1 *732:RESET_B 0
2 *699:Y 0.000256644
3 *48:10 0.000256644
*RES
1 *699:Y *48:10 42.5364 
2 *48:10 *732:RESET_B 15 
*END

*D_NET *49 0.000551401
*CONN
*I *733:RESET_B I *D sky130_fd_sc_hd__dfrtp_1
*I *701:Y O *D sky130_fd_sc_hd__inv_2
*CAP
1 *733:RESET_B 0
2 *701:Y 0.000211265
3 *49:10 0.000211265
4 *49:10 *608:A 6.17437e-06
5 *49:10 *119:8 0.000122696
*RES
1 *701:Y *49:10 42.4121 
2 *49:10 *733:RESET_B 15 
*END

*D_NET *50 0.000501966
*CONN
*I *734:RESET_B I *D sky130_fd_sc_hd__dfrtp_1
*I *702:Y O *D sky130_fd_sc_hd__inv_2
*CAP
1 *734:RESET_B 0
2 *702:Y 0.000168
3 *50:10 0.000168
4 *50:10 *702:A 3.7122e-06
5 *50:10 *176:55 0.000162254
*RES
1 *702:Y *50:10 40.8793 
2 *50:10 *734:RESET_B 15 
*END

*D_NET *51 0.000912622
*CONN
*I *735:RESET_B I *D sky130_fd_sc_hd__dfrtp_1
*I *703:Y O *D sky130_fd_sc_hd__inv_2
*CAP
1 *735:RESET_B 0.000248366
2 *703:Y 0.000248366
3 *735:RESET_B *612:B 0.00014758
4 *735:RESET_B *86:48 8.95826e-05
5 *735:RESET_B *210:8 0.000136623
6 *735:RESET_B *210:49 4.21048e-05
*RES
1 *703:Y *735:RESET_B 28.7896 
*END

*D_NET *52 0.000569246
*CONN
*I *736:RESET_B I *D sky130_fd_sc_hd__dfrtp_1
*I *704:Y O *D sky130_fd_sc_hd__inv_2
*CAP
1 *736:RESET_B 0
2 *704:Y 0.000124843
3 *52:10 0.000124843
4 *52:10 *125:10 5.50049e-05
5 *52:10 *176:82 1.01436e-05
6 *52:10 *176:145 0.000194318
7 *52:10 *185:10 6.0093e-05
*RES
1 *704:Y *52:10 41.2314 
2 *52:10 *736:RESET_B 15 
*END

*D_NET *53 0.000546102
*CONN
*I *737:RESET_B I *D sky130_fd_sc_hd__dfrtp_1
*I *705:Y O *D sky130_fd_sc_hd__inv_2
*CAP
1 *737:RESET_B 9.84621e-05
2 *705:Y 9.84621e-05
3 *737:RESET_B *98:88 2.33679e-05
4 *737:RESET_B *176:145 0.000188934
5 *737:RESET_B *185:8 0.000136876
*RES
1 *705:Y *737:RESET_B 25.9311 
*END

*D_NET *54 0.000973474
*CONN
*I *738:RESET_B I *D sky130_fd_sc_hd__dfrtp_1
*I *706:Y O *D sky130_fd_sc_hd__inv_2
*CAP
1 *738:RESET_B 0
2 *706:Y 0.000288374
3 *54:10 0.000288374
4 *54:10 *709:A 5.29915e-05
5 *54:10 *738:CLK 0.000132749
6 *54:10 *101:48 8.99876e-05
7 *54:10 *126:10 2.76153e-05
8 *54:10 *176:97 3.83778e-05
9 *13:10 *54:10 5.50049e-05
*RES
1 *706:Y *54:10 43.1371 
2 *54:10 *738:RESET_B 15 
*END

*D_NET *55 0.000353917
*CONN
*I *739:RESET_B I *D sky130_fd_sc_hd__dfrtp_1
*I *707:Y O *D sky130_fd_sc_hd__inv_2
*CAP
1 *739:RESET_B 0.000152462
2 *707:Y 0.000152462
3 *739:RESET_B *632:C 4.89921e-05
*RES
1 *707:Y *739:RESET_B 25.4546 
*END

*D_NET *56 0.000958695
*CONN
*I *740:RESET_B I *D sky130_fd_sc_hd__dfrtp_1
*I *708:Y O *D sky130_fd_sc_hd__inv_2
*CAP
1 *740:RESET_B 0.000183363
2 *708:Y 0.000138962
3 *56:10 0.000322325
4 *740:RESET_B *101:48 6.17437e-06
5 *740:RESET_B *137:10 0.000137368
6 *740:RESET_B *187:12 1.12709e-05
7 *740:RESET_B *187:36 1.96141e-05
8 *740:RESET_B *187:53 9.20974e-06
9 *740:RESET_B *188:8 5.3304e-05
10 *56:10 *707:A 2.95526e-05
11 *56:10 *135:12 4.75505e-05
12 *56:10 *187:8 0
*RES
1 *708:Y *56:10 40.175 
2 *56:10 *740:RESET_B 18.4075 
*END

*D_NET *57 0.000817099
*CONN
*I *741:RESET_B I *D sky130_fd_sc_hd__dfrtp_1
*I *709:Y O *D sky130_fd_sc_hd__inv_2
*CAP
1 *741:RESET_B 0
2 *709:Y 0.000381533
3 *57:10 0.000381533
4 *57:10 *78:8 0
5 *57:10 *133:10 0
6 *57:10 *143:8 0
7 *57:10 *178:60 5.40337e-05
*RES
1 *709:Y *57:10 43.7379 
2 *57:10 *741:RESET_B 15 
*END

*D_NET *58 0.000974492
*CONN
*I *742:RESET_B I *D sky130_fd_sc_hd__dfrtp_1
*I *710:Y O *D sky130_fd_sc_hd__inv_2
*CAP
1 *742:RESET_B 2.07541e-05
2 *710:Y 0.000384721
3 *58:10 0.000405475
4 *742:RESET_B *101:14 5.14854e-05
5 *58:10 *145:10 5.74915e-05
6 *58:10 *176:6 5.45644e-05
*RES
1 *710:Y *58:10 44.525 
2 *58:10 *742:RESET_B 15.5489 
*END

*D_NET *59 0.000502392
*CONN
*I *743:RESET_B I *D sky130_fd_sc_hd__dfrtp_2
*I *712:Y O *D sky130_fd_sc_hd__inv_2
*CAP
1 *743:RESET_B 0
2 *712:Y 0.000157914
3 *59:10 0.000157914
4 *59:10 *712:A 6.17437e-06
5 *59:10 *60:10 0.000125461
6 *59:10 *177:10 5.49289e-05
*RES
1 *712:Y *59:10 41.5836 
2 *59:10 *743:RESET_B 15 
*END

*D_NET *60 0.00091327
*CONN
*I *744:RESET_B I *D sky130_fd_sc_hd__dfrtp_1
*I *713:Y O *D sky130_fd_sc_hd__inv_2
*CAP
1 *744:RESET_B 0
2 *713:Y 0.000338094
3 *60:10 0.000338094
4 *60:10 *712:A 5.41288e-05
5 *60:10 *191:10 5.74915e-05
6 *59:10 *60:10 0.000125461
*RES
1 *713:Y *60:10 45.0014 