*SPEF "ieee 1481-1999"
*DESIGN "twos_complement"
*DATE "20:39:53 Saturday April 26, 2025"
*VENDOR "The OpenROAD Project"
*PROGRAM "OpenROAD"
*VERSION "b16bda7e82721d10566ff7e2b68f1ff0be9f9e38"
*DESIGN_FLOW "NAME_SCOPE LOCAL" "PIN_CAP NONE"
*DIVIDER /
*DELIMITER :
*BUS_DELIMITER []
*T_UNIT 1 NS
*C_UNIT 1 PF
*R_UNIT 1 OHM
*L_UNIT 1 HENRY

*NAME_MAP
*3 in[0]
*4 in[1]
*5 in[2]
*6 in[3]
*7 in[4]
*8 in[5]
*9 in[6]
*10 in[7]
*11 out[0]
*12 out[1]
*13 out[2]
*14 out[3]
*15 out[4]
*16 out[5]
*17 out[6]
*18 out[7]
*19 _00_
*20 _01_
*21 _02_
*22 _03_
*23 _04_
*24 _05_
*25 _06_
*26 _07_
*27 _08_
*28 net1
*29 net10
*30 net11
*31 net12
*32 net13
*33 net14
*34 net15
*35 net16
*36 net2
*37 net3
*38 net4
*39 net5
*40 net6
*41 net7
*42 net8
*43 net9
*44 FILLER_0_0_15
*45 FILLER_0_0_21
*46 FILLER_0_0_27
*47 FILLER_0_0_29
*48 FILLER_0_0_3
*49 FILLER_0_0_35
*50 FILLER_0_0_41
*51 FILLER_0_0_53
*52 FILLER_0_1_15
*53 FILLER_0_1_19
*54 FILLER_0_1_23
*55 FILLER_0_1_3
*56 FILLER_0_1_31
*57 FILLER_0_1_39
*58 FILLER_0_1_51
*59 FILLER_0_1_55
*60 FILLER_0_2_11
*61 FILLER_0_2_26
*62 FILLER_0_2_29
*63 FILLER_0_2_3
*64 FILLER_0_2_37
*65 FILLER_0_2_47
*66 FILLER_0_2_51
*67 FILLER_0_3_15
*68 FILLER_0_3_22
*69 FILLER_0_3_3
*70 FILLER_0_3_34
*71 FILLER_0_3_46
*72 FILLER_0_3_54
*73 FILLER_0_4_15
*74 FILLER_0_4_27
*75 FILLER_0_4_29
*76 FILLER_0_4_3
*77 FILLER_0_4_41
*78 FILLER_0_4_53
*79 FILLER_0_5_15
*80 FILLER_0_5_27
*81 FILLER_0_5_3
*82 FILLER_0_5_39
*83 FILLER_0_5_50
*84 FILLER_0_6_11
*85 FILLER_0_6_17
*86 FILLER_0_6_22
*87 FILLER_0_6_29
*88 FILLER_0_6_41
*89 FILLER_0_6_53
*90 FILLER_0_7_14
*91 FILLER_0_7_3
*92 FILLER_0_7_39
*93 FILLER_0_7_51
*94 FILLER_0_7_55
*95 FILLER_0_8_15
*96 FILLER_0_8_27
*97 FILLER_0_8_29
*98 FILLER_0_8_3
*99 FILLER_0_8_38
*100 FILLER_0_8_50
*101 FILLER_0_8_56
*102 FILLER_0_9_20
*103 FILLER_0_9_27
*104 FILLER_0_9_29
*105 FILLER_0_9_37
*106 FILLER_0_9_44
*107 FILLER_0_9_9
*108 PHY_EDGE_ROW_0_Left_10
*109 PHY_EDGE_ROW_0_Right_0
*110 PHY_EDGE_ROW_1_Left_11
*111 PHY_EDGE_ROW_1_Right_1
*112 PHY_EDGE_ROW_2_Left_12
*113 PHY_EDGE_ROW_2_Right_2
*114 PHY_EDGE_ROW_3_Left_13
*115 PHY_EDGE_ROW_3_Right_3
*116 PHY_EDGE_ROW_4_Left_14
*117 PHY_EDGE_ROW_4_Right_4
*118 PHY_EDGE_ROW_5_Left_15
*119 PHY_EDGE_ROW_5_Right_5
*120 PHY_EDGE_ROW_6_Left_16
*121 PHY_EDGE_ROW_6_Right_6
*122 PHY_EDGE_ROW_7_Left_17
*123 PHY_EDGE_ROW_7_Right_7
*124 PHY_EDGE_ROW_8_Left_18
*125 PHY_EDGE_ROW_8_Right_8
*126 PHY_EDGE_ROW_9_Left_19
*127 PHY_EDGE_ROW_9_Right_9
*128 TAP_TAPCELL_ROW_0_20
*129 TAP_TAPCELL_ROW_0_21
*130 TAP_TAPCELL_ROW_1_22
*131 TAP_TAPCELL_ROW_2_23
*132 TAP_TAPCELL_ROW_3_24
*133 TAP_TAPCELL_ROW_4_25
*134 TAP_TAPCELL_ROW_5_26
*135 TAP_TAPCELL_ROW_6_27
*136 TAP_TAPCELL_ROW_7_28
*137 TAP_TAPCELL_ROW_8_29
*138 TAP_TAPCELL_ROW_9_30
*139 TAP_TAPCELL_ROW_9_31
*140 _09_
*141 _10_
*142 _11_
*143 _12_
*144 _13_
*145 _14_
*146 _15_
*147 _16_
*148 _17_
*149 _18_
*150 _19_
*151 _20_
*152 _21_
*153 _22_
*154 _23_
*155 _24_
*156 _25_
*157 input1
*158 input2
*159 input3
*160 input4
*161 input5
*162 input6
*163 input7
*164 input8
*165 output10
*166 output11
*167 output12
*168 output13
*169 output14
*170 output15
*171 output16
*172 output9

*PORTS
in[0] I
in[1] I
in[2] I
in[3] I
in[4] I
in[5] I
in[6] I
in[7] I
out[0] O
out[1] O
out[2] O
out[3] O
out[4] O
out[5] O
out[6] O
out[7] O

*D_NET *3 0.000616123
*CONN
*P in[0] I
*I *157:A I *D sky130_fd_sc_hd__buf_1
*CAP
1 in[0] 0.000290582
2 *157:A 0.000290582
3 *157:A *4:13 3.12475e-05
4 *157:A *28:10 3.7122e-06
*RES
1 in[0] *157:A 49.8062 
*END

*D_NET *4 0.0010898
*CONN
*P in[1] I
*I *158:A I *D sky130_fd_sc_hd__buf_1
*CAP
1 in[1] 0.000432764
2 *158:A 0
3 *4:13 0.000432764
4 *4:13 out[0] 4.99643e-05
5 *4:13 out[1] 0
6 *4:13 *28:10 0.000143057
7 *4:13 *36:10 0
8 *157:A *4:13 3.12475e-05
*RES
1 in[1] *4:13 27.7277 
2 *4:13 *158:A 23 
*END

*D_NET *5 0.000912386
*CONN
*P in[2] I
*I *159:A I *D sky130_fd_sc_hd__clkbuf_1
*CAP
1 in[2] 0.000456193
2 *159:A 0.000456193
3 *159:A *160:A 0
*RES
1 in[2] *159:A 48.0257 
*END

*D_NET *6 0.000910576
*CONN
*P in[3] I
*I *160:A I *D sky130_fd_sc_hd__clkbuf_1
*CAP
1 in[3] 0.000455288
2 *160:A 0.000455288
3 *160:A out[3] 0
4 *159:A *160:A 0
*RES
1 in[3] *160:A 48.0257 
*END

*D_NET *7 0.0010159
*CONN
*P in[4] I
*I *161:A I *D sky130_fd_sc_hd__buf_1
*CAP
1 in[4] 0.000489544
2 *161:A 0.000489544
3 *161:A out[5] 0
4 *161:A *39:10 3.68102e-05
*RES
1 in[4] *161:A 48.2743 
*END

*D_NET *8 0.000910865
*CONN
*P in[5] I
*I *162:A I *D sky130_fd_sc_hd__buf_1
*CAP
1 in[5] 0.000453292
2 *162:A 0.000453292
3 *162:A out[4] 0
4 *162:A out[5] 0
5 *162:A *33:8 4.2812e-06
*RES
1 in[5] *162:A 47.3214 
*END

*D_NET *9 0.000944809
*CONN
*P in[6] I
*I *163:A I *D sky130_fd_sc_hd__clkbuf_1
*CAP
1 in[6] 0.000431181
2 *163:A 0.000431181
3 *163:A out[6] 5.1015e-05
4 *163:A out[7] 3.1432e-05
*RES
1 in[6] *163:A 49.1918 
*END

*D_NET *10 0.00115517
*CONN
*P in[7] I
*I *164:A I *D sky130_fd_sc_hd__clkbuf_1
*CAP
1 in[7] 0.000569564
2 *164:A 0
3 *10:19 0.000569564
4 *10:19 out[7] 1.60414e-05
*RES
1 in[7] *10:19 40.7969 
2 *10:19 *164:A 23 
*END

*D_NET *11 0.000813129
*CONN
*P out[0] O
*I *172:X O *D sky130_fd_sc_hd__buf_2
*CAP
1 out[0] 0.000344781
2 *172:X 0.000344781
3 out[0] out[1] 4.5979e-05
4 out[0] *165:A 6.17437e-06
5 out[0] *29:8 2.14486e-05
6 *4:13 out[0] 4.99643e-05
*RES
1 *172:X out[0] 49.8901 
*END

*D_NET *12 0.00111704
*CONN
*P out[1] O
*I *165:X O *D sky130_fd_sc_hd__buf_2
*CAP
1 out[1] 0.000535528
2 *165:X 0.000535528
3 out[0] out[1] 4.5979e-05
4 *4:13 out[1] 0
*RES
1 *165:X out[1] 47.5941 
*END

*D_NET *13 0.000932571
*CONN
*P out[2] O
*I *166:X O *D sky130_fd_sc_hd__clkbuf_4
*CAP
1 out[2] 0.000466285
2 *166:X 0.000466285
3 out[2] out[3] 0
*RES
1 *166:X out[2] 48.2743 
*END

*D_NET *14 0.00100225
*CONN
*P out[3] O
*I *167:X O *D sky130_fd_sc_hd__clkbuf_4
*CAP
1 out[3] 0.000501123
2 *167:X 0.000501123
3 out[2] out[3] 0
4 *160:A out[3] 0
*RES
1 *167:X out[3] 48.4193 
*END

*D_NET *15 0.000920759
*CONN
*P out[4] O
*I *168:X O *D sky130_fd_sc_hd__buf_2
*CAP
1 out[4] 0.00046038
2 *168:X 0.00046038
3 *162:A out[4] 0
*RES
1 *168:X out[4] 47.3836 
*END

*D_NET *16 0.000953277
*CONN
*P out[5] O
*I *169:X O *D sky130_fd_sc_hd__buf_2
*CAP
1 out[5] 0.000476639
2 *169:X 0.000476639
3 *161:A out[5] 0
4 *162:A out[5] 0
*RES
1 *169:X out[5] 47.86 
*END

*D_NET *17 0.00086428
*CONN
*P out[6] O
*I *170:X O *D sky130_fd_sc_hd__buf_2
*CAP
1 out[6] 0.000406633
2 *170:X 0.000406633
3 *163:A out[6] 5.1015e-05
*RES
1 *170:X out[6] 47.5169 
*END

*D_NET *18 0.00105517
*CONN
*P out[7] O
*I *171:X O *D sky130_fd_sc_hd__buf_2
*CAP
1 out[7] 0.000503849
2 *171:X 0.000503849
3 *163:A out[7] 3.1432e-05
4 *10:19 out[7] 1.60414e-05
*RES
1 *171:X out[7] 48.4905 
*END

*D_NET *19 0.00584497
*CONN
*I *155:B1_N I *D sky130_fd_sc_hd__a21boi_1
*I *142:B I *D sky130_fd_sc_hd__and2_1
*I *145:A3 I *D sky130_fd_sc_hd__o31a_1
*I *146:D I *D sky130_fd_sc_hd__or4_1
*I *141:B I *D sky130_fd_sc_hd__nor2_1
*I *140:X O *D sky130_fd_sc_hd__or4_2
*CAP
1 *155:B1_N 4.66683e-05
2 *142:B 0.000648115
3 *145:A3 2.32701e-05
4 *146:D 0
5 *141:B 0.000185903
6 *140:X 0.000212678
7 *19:16 0.00028114
8 *19:12 0.000187093
9 *19:10 0.00133802
10 *19:8 0.000880669
11 *141:B *141:A 0.000492827
12 *141:B *146:B 1.84917e-05
13 *141:B *40:12 9.54606e-05
14 *142:B *142:A 8.37781e-05
15 *142:B *144:A 0.000507629
16 *142:B *145:A2 5.3304e-05
17 *142:B *145:B1 2.31687e-05
18 *145:A3 *142:A 5.3304e-05
19 *145:A3 *145:B1 5.3304e-05
20 *19:8 *153:B 0.000322475
21 *19:12 *40:18 4.90185e-05
22 *19:12 *41:29 1.51481e-05
23 *19:16 *40:18 0.000187612
24 *19:16 *41:29 8.58878e-05
*RES
1 *140:X *19:8 41.48 
2 *19:8 *19:10 12.2939 
3 *19:10 *19:12 1.3775 
4 *19:12 *19:16 17.61 
5 *19:16 *141:B 28.3857 
6 *19:16 *146:D 23 
7 *19:12 *145:A3 38.6214 
8 *19:10 *142:B 49.1546 
9 *19:8 *155:B1_N 38.8493 
*END

*D_NET *20 0.00136303
*CONN
*I *143:A I *D sky130_fd_sc_hd__nor2_1
*I *144:B I *D sky130_fd_sc_hd__xnor2_1
*I *141:Y O *D sky130_fd_sc_hd__nor2_1
*CAP
1 *143:A 0
2 *144:B 0
3 *141:Y 0.000152364
4 *20:27 0.000356417
5 *20:12 0.000356417
6 *20:10 0.000152364
7 *20:10 *141:A 5.79559e-05
8 *20:10 *32:8 4.61178e-05
9 *20:10 *33:8 2.04934e-05
10 *20:27 *142:A 7.87243e-05
11 *20:27 *144:A 0.000142173
*RES
1 *141:Y *20:10 40.8793 
2 *20:10 *20:12 15 
3 *20:12 *144:B 23 
4 *20:12 *20:27 36.5871 
5 *20:27 *143:A 23 
*END

*D_NET *21 0.000387142
*CONN
*I *143:B I *D sky130_fd_sc_hd__nor2_1
*I *142:X O *D sky130_fd_sc_hd__and2_1
*CAP
1 *143:B 4.68338e-05
2 *142:X 0.000102794
3 *21:8 0.000149628
4 *21:8 *32:8 8.78864e-05
*RES
1 *142:X *21:8 40.2579 
2 *21:8 *143:B 38.6214 
*END

*D_NET *22 0.000386426
*CONN
*I *147:A_N I *D sky130_fd_sc_hd__and2b_1
*I *145:X O *D sky130_fd_sc_hd__o31a_1
*CAP
1 *147:A_N 0.000129019
2 *145:X 0.000129019
3 *147:A_N *39:40 5.56279e-05
4 *147:A_N *41:14 7.27596e-05
*RES
1 *145:X *147:A_N 48.5271 
*END

*D_NET *23 0.00184706
*CONN
*I *149:B I *D sky130_fd_sc_hd__xor2_1
*I *147:B I *D sky130_fd_sc_hd__and2b_1
*I *146:X O *D sky130_fd_sc_hd__or4_1
*CAP
1 *149:B 0.000433272
2 *147:B 7.50594e-05
3 *146:X 0.000303295
4 *23:10 0.000811627
5 *149:B *41:10 0.000152371
6 *23:10 *39:14 5.40241e-05
7 *23:10 *41:10 1.74126e-05
*RES
1 *146:X *23:10 42.6607 
2 *23:10 *147:B 39.0979 
3 *23:10 *149:B 46.99 
*END

*D_NET *24 0.000167976
*CONN
*I *148:A I *D sky130_fd_sc_hd__clkbuf_1
*I *147:X O *D sky130_fd_sc_hd__and2b_1
*CAP
1 *148:A 7.44607e-05
2 *147:X 7.44607e-05
3 *148:A *170:A 1.9054e-05
*RES
1 *147:X *148:A 47.595 
*END

*D_NET *25 0.00127617
*CONN
*I *153:A I *D sky130_fd_sc_hd__and2_1
*I *155:A2 I *D sky130_fd_sc_hd__a21boi_1
*I *151:X O *D sky130_fd_sc_hd__or3_1
*CAP
1 *153:A 8.69906e-05
2 *155:A2 0
3 *151:X 0.000248316
4 *25:12 0.000335307
5 *153:A *153:B 0.000144071
6 *153:A *155:A1 3.22051e-05
7 *153:A *31:10 5.71054e-05
8 *25:12 *140:A 0.000126837
9 *25:12 *140:C 1.59071e-05
10 *25:12 *140:D 5.79559e-05
11 *25:12 *153:B 0.000144501
12 *25:12 *155:A1 2.69729e-05
*RES
1 *151:X *25:12 28.8 
2 *25:12 *155:A2 23 
3 *25:12 *153:A 26.0036 
*END

*D_NET *26 0.00168447
*CONN
*I *153:B I *D sky130_fd_sc_hd__and2_1
*I *152:Y O *D sky130_fd_sc_hd__o21ai_1
*CAP
1 *153:B 0.000218235
2 *152:Y 0.000289497
3 *26:10 0.000507732
4 *26:10 *152:B1 5.79559e-05
5 *153:A *153:B 0.000144071
6 *19:8 *153:B 0.000322475
7 *25:12 *153:B 0.000144501
*RES
1 *152:Y *26:10 42.0807 
2 *26:10 *153:B 44.235 
*END

*D_NET *27 0.000409449
*CONN
*I *154:A I *D sky130_fd_sc_hd__clkbuf_1
*I *153:X O *D sky130_fd_sc_hd__and2_1
*CAP
1 *154:A 8.59383e-05
2 *153:X 0.00010962
3 *27:8 0.000195558
4 *154:A *30:10 1.83327e-05
*RES
1 *153:X *27:8 39.9057 
2 *27:8 *154:A 39.5743 
*END

*D_NET *28 0.0031929
*CONN
*I *140:D I *D sky130_fd_sc_hd__or4_2
*I *152:A2 I *D sky130_fd_sc_hd__o21ai_1
*I *151:C I *D sky130_fd_sc_hd__or3_1
*I *156:A I *D sky130_fd_sc_hd__clkbuf_1
*I *150:B I *D sky130_fd_sc_hd__xor2_1
*I *157:X O *D sky130_fd_sc_hd__buf_1
*CAP
1 *140:D 8.85181e-05
2 *152:A2 0
3 *151:C 0
4 *156:A 0
5 *150:B 0
6 *157:X 0.000346837
7 *28:51 0.000271014
8 *28:41 0.000410219
9 *28:32 0.000102706
10 *28:25 0.000243168
11 *28:14 0.000326744
12 *28:10 0.000482433
13 *140:D *140:C 6.36252e-05
14 *140:D *151:A 5.5792e-05
15 *28:10 *36:10 0
16 *28:25 *150:A 0.000100061
17 *28:25 *36:23 5.75824e-05
18 *28:32 *140:C 1.3523e-05
19 *28:32 *36:23 7.40718e-05
20 *28:41 *140:C 2.1819e-05
21 *28:51 *152:B1 7.19506e-05
22 *28:51 *36:33 0.000222923
23 *28:51 *37:8 1.12919e-05
24 *28:51 *37:10 2.39018e-05
25 *157:A *28:10 3.7122e-06
26 *4:13 *28:10 0.000143057
27 *25:12 *140:D 5.79559e-05
*RES
1 *157:X *28:10 44.1729 
2 *28:10 *28:14 17.0507 
3 *28:14 *150:B 23 
4 *28:14 *28:25 4.35 
5 *28:25 *156:A 23 
6 *28:25 *28:32 1.57429 
7 *28:32 *151:C 23 
8 *28:32 *28:41 1.11857 
9 *28:41 *28:51 35.6136 
10 *28:51 *152:A2 23 
11 *28:41 *140:D 25.0507 
*END

*D_NET *29 0.000489426
*CONN
*I *165:A I *D sky130_fd_sc_hd__buf_2
*I *150:X O *D sky130_fd_sc_hd__xor2_1
*CAP
1 *165:A 9.73372e-05
2 *150:X 0.000111845
3 *29:8 0.000209182
4 *165:A *172:A 4.344e-05
5 out[0] *165:A 6.17437e-06
6 out[0] *29:8 2.14486e-05
*RES
1 *150:X *29:8 39.9057 
2 *29:8 *165:A 40.0714 
*END

*D_NET *30 0.000594929
*CONN
*I *166:A I *D sky130_fd_sc_hd__clkbuf_4
*I *154:X O *D sky130_fd_sc_hd__clkbuf_1
*CAP
1 *166:A 4.25135e-05
2 *154:X 0.000245785
3 *30:10 0.000288298
4 *154:A *30:10 1.83327e-05
*RES
1 *154:X *30:10 41.8321 
2 *30:10 *166:A 38.6214 
*END

*D_NET *31 0.000729471
*CONN
*I *167:A I *D sky130_fd_sc_hd__clkbuf_4
*I *155:Y O *D sky130_fd_sc_hd__a21boi_1
*CAP
1 *167:A 0
2 *155:Y 0.000336183
3 *31:10 0.000336183
4 *153:A *31:10 5.71054e-05
*RES
1 *155:Y *31:10 44.1729 
2 *31:10 *167:A 38 
*END

*D_NET *32 0.00105437
*CONN
*I *168:A I *D sky130_fd_sc_hd__buf_2
*I *143:Y O *D sky130_fd_sc_hd__nor2_1
*CAP
1 *168:A 3.77448e-05
2 *143:Y 0.000422436
3 *32:8 0.000460181
4 *20:10 *32:8 4.61178e-05
5 *21:8 *32:8 8.78864e-05
*RES
1 *143:Y *32:8 45.8921 
2 *32:8 *168:A 38.6214 
*END

*D_NET *33 0.00100942
*CONN
*I *169:A I *D sky130_fd_sc_hd__buf_2
*I *144:Y O *D sky130_fd_sc_hd__xnor2_1
*CAP
1 *169:A 0.000196468
2 *144:Y 0.000252274
3 *33:8 0.000448743
4 *33:8 *40:8 8.71559e-05
5 *162:A *33:8 4.2812e-06
6 *20:10 *33:8 2.04934e-05
*RES
1 *144:Y *33:8 43.075 
2 *33:8 *169:A 41.0036 
*END

*D_NET *34 0.000253392
*CONN
*I *170:A I *D sky130_fd_sc_hd__buf_2
*I *148:X O *D sky130_fd_sc_hd__clkbuf_1
*CAP
1 *170:A 0.000117169
2 *148:X 0.000117169
3 *148:A *170:A 1.9054e-05
*RES
1 *148:X *170:A 48.4236 
*END

*D_NET *35 0.00024985
*CONN
*I *171:A I *D sky130_fd_sc_hd__buf_2
*I *149:X O *D sky130_fd_sc_hd__xor2_1
*CAP
1 *171:A 0.000124925
2 *149:X 0.000124925
*RES
1 *149:X *171:A 48.0714 
*END

*D_NET *36 0.00252479
*CONN
*I *140:C I *D sky130_fd_sc_hd__or4_2
*I *151:B I *D sky130_fd_sc_hd__or3_1
*I *152:A1 I *D sky130_fd_sc_hd__o21ai_1
*I *150:A I *D sky130_fd_sc_hd__xor2_1
*I *158:X O *D sky130_fd_sc_hd__buf_1
*CAP
1 *140:C 0.000135534
2 *151:B 0
3 *152:A1 0
4 *150:A 4.71864e-05
5 *158:X 0.000365602
6 *36:33 0.000159157
7 *36:25 0.000180446
8 *36:23 0.000327764
9 *36:12 0.000218127
10 *36:10 0.000365602
11 *140:C *140:B 0.000100069
12 *140:C *151:A 5.5792e-05
13 *140:D *140:C 6.36252e-05
14 *4:13 *36:10 0
15 *25:12 *140:C 1.59071e-05
16 *28:10 *36:10 0
17 *28:25 *150:A 0.000100061
18 *28:25 *36:23 5.75824e-05
19 *28:32 *140:C 1.3523e-05
20 *28:32 *36:23 7.40718e-05
21 *28:41 *140:C 2.1819e-05
22 *28:51 *36:33 0.000222923
*RES
1 *158:X *36:10 43.8207 
2 *36:10 *36:12 15 
3 *36:12 *150:A 24.0979 
4 *36:12 *36:23 3.85286 
5 *36:23 *36:25 0.497143 
6 *36:25 *36:33 33.3557 
7 *36:33 *152:A1 23 
8 *36:25 *151:B 23 
9 *36:23 *140:C 26.5007 
*END

*D_NET *37 0.0015004
*CONN
*I *151:A I *D sky130_fd_sc_hd__or3_1
*I *140:B I *D sky130_fd_sc_hd__or4_2
*I *152:B1 I *D sky130_fd_sc_hd__o21ai_1
*I *159:X O *D sky130_fd_sc_hd__clkbuf_1
*CAP
1 *151:A 1.51572e-05
2 *140:B 8.9602e-05
3 *152:B1 0.000165298
4 *159:X 0.000248598
5 *37:10 0.000298069
6 *37:8 0.000306924
7 *140:C *140:B 0.000100069
8 *140:C *151:A 5.5792e-05
9 *140:D *151:A 5.5792e-05
10 *26:10 *152:B1 5.79559e-05
11 *28:51 *152:B1 7.19506e-05
12 *28:51 *37:8 1.12919e-05
13 *28:51 *37:10 2.39018e-05
*RES
1 *159:X *37:8 42.7229 
2 *37:8 *37:10 0.849286 
3 *37:10 *152:B1 41.5007 
4 *37:10 *140:B 39.595 
5 *37:8 *151:A 38.6214 
*END

*D_NET *38 0.000963974
*CONN
*I *155:A1 I *D sky130_fd_sc_hd__a21boi_1
*I *140:A I *D sky130_fd_sc_hd__or4_2
*I *160:X O *D sky130_fd_sc_hd__clkbuf_1
*CAP
1 *155:A1 0.000102896
2 *140:A 6.45038e-05
3 *160:X 0.000221579
4 *38:10 0.0001674
5 *38:8 0.000221579
6 *153:A *155:A1 3.22051e-05
7 *25:12 *140:A 0.000126837
8 *25:12 *155:A1 2.69729e-05
*RES
1 *160:X *38:8 42.0186 
2 *38:8 *38:10 15 
3 *38:10 *140:A 24.9471 
4 *38:10 *155:A1 24.5743 
*END

*D_NET *39 0.00434045
*CONN
*I *145:A1 I *D sky130_fd_sc_hd__o31a_1
*I *142:A I *D sky130_fd_sc_hd__and2_1
*I *141:A I *D sky130_fd_sc_hd__nor2_1
*I *146:A I *D sky130_fd_sc_hd__or4_1
*I *161:X O *D sky130_fd_sc_hd__buf_1
*CAP
1 *145:A1 0
2 *142:A 0.000532096
3 *141:A 0.000454007
4 *146:A 0
5 *161:X 0.000203605
6 *39:40 0.000733131
7 *39:16 0.000497455
8 *39:14 0.000335559
9 *39:10 0.000294682
10 *142:A *144:A 0.000105222
11 *142:A *145:B1 4.20519e-05
12 *39:40 *145:B1 5.56279e-05
13 *39:40 *41:14 8.53029e-05
14 *39:40 *41:29 8.86576e-05
15 *141:B *141:A 0.000492827
16 *142:B *142:A 8.37781e-05
17 *145:A3 *142:A 5.3304e-05
18 *147:A_N *39:40 5.56279e-05
19 *161:A *39:10 3.68102e-05
20 *20:10 *141:A 5.79559e-05
21 *20:27 *142:A 7.87243e-05
22 *23:10 *39:14 5.40241e-05
*RES
1 *161:X *39:10 41.3557 
2 *39:10 *39:14 16.5743 
3 *39:14 *39:16 0.621429 
4 *39:16 *146:A 23 
5 *39:16 *141:A 31.7621 
6 *39:14 *39:40 34.1843 
7 *39:40 *142:A 33.1914 
8 *39:40 *145:A1 23 
*END

*D_NET *40 0.00274111
*CONN
*I *146:B I *D sky130_fd_sc_hd__or4_1
*I *145:A2 I *D sky130_fd_sc_hd__o31a_1
*I *144:A I *D sky130_fd_sc_hd__xnor2_1
*I *162:X O *D sky130_fd_sc_hd__buf_1
*CAP
1 *146:B 3.75584e-05
2 *145:A2 2.05553e-05
3 *144:A 0.000147346
4 *162:X 5.56003e-05
5 *40:18 0.000397832
6 *40:12 0.000475774
7 *40:8 0.000263885
8 *144:A *145:B1 5.56279e-05
9 *145:A2 *145:B1 4.08664e-05
10 *141:B *146:B 1.84917e-05
11 *141:B *40:12 9.54606e-05
12 *142:A *144:A 0.000105222
13 *142:B *144:A 0.000507629
14 *142:B *145:A2 5.3304e-05
15 *19:12 *40:18 4.90185e-05
16 *19:16 *40:18 0.000187612
17 *20:27 *144:A 0.000142173
18 *33:8 *40:8 8.71559e-05
*RES
1 *162:X *40:8 39.2014 
2 *40:8 *40:12 18.0036 
3 *40:12 *40:18 34.3707 
4 *40:18 *144:A 29.235 
5 *40:18 *145:A2 23.6214 
6 *40:12 *146:B 23.6214 
*END

*D_NET *41 0.00296935
*CONN
*I *146:C I *D sky130_fd_sc_hd__or4_1
*I *145:B1 I *D sky130_fd_sc_hd__o31a_1
*I *163:X O *D sky130_fd_sc_hd__clkbuf_1
*CAP
1 *146:C 0
2 *145:B1 9.60618e-05
3 *163:X 0.000745077
4 *41:29 0.000140856
5 *41:14 0.000345503
6 *41:10 0.000853663
7 *142:A *145:B1 4.20519e-05
8 *142:B *145:B1 2.31687e-05
9 *144:A *145:B1 5.56279e-05
10 *145:A2 *145:B1 4.08664e-05
11 *145:A3 *145:B1 5.3304e-05
12 *147:A_N *41:14 7.27596e-05
13 *149:B *41:10 0.000152371
14 *19:12 *41:29 1.51481e-05
15 *19:16 *41:29 8.58878e-05
16 *23:10 *41:10 1.74126e-05
17 *39:40 *145:B1 5.56279e-05
18 *39:40 *41:14 8.53029e-05
19 *39:40 *41:29 8.86576e-05
*RES
1 *163:X *41:10 49.5379 
2 *41:10 *41:14 17.5271 
3 *41:14 *145:B1 25.5479 
4 *41:14 *41:29 32.9621 
5 *41:29 *146:C 23 
*END

*D_NET *42 0.000912982
*CONN
*I *149:A I *D sky130_fd_sc_hd__xor2_1
*I *164:X O *D sky130_fd_sc_hd__clkbuf_1
*CAP
1 *149:A 6.31146e-05
2 *164:X 0.000393377
3 *42:10 0.000456491
*RES
1 *164:X *42:10 43.3857 
2 *42:10 *149:A 39.0979 
*END

*D_NET *43 0.000668524
*CONN
*I *172:A I *D sky130_fd_sc_hd__buf_2
*I *156:X O *D sky130_fd_sc_hd__clkbuf_1
*CAP
1 *172:A 0.000165031
2 *156:X 0.000147511
3 *43:8 0.000312542
4 *165:A *172:A 4.344e-05
*RES
1 *156:X *43:8 40.61 
2 *43:8 *172:A 41.0243 
*END
